xflr5 v6.51

Plane Name
T1-10.0 m/s-Panel-Inviscid
QInf  =   10.000000 m/s
Alpha =    0.000000
Beta  =    0.000°
Phi   =    0.000°
Ctrl  =    0.000
CL    =    0.176815
Cy    =    0.000000
Cd    =    0.001319     ICd   =    0.001319     PCd   =    0.000000
Cl   = 3.60127e-07
Cm   =   -0.267948
ICn   =   -0.000002     PCn   =   -0.000002
XCP   =    6.935893     YCP   =   -0.000058     ZCP   =    0.891493
XNP   =    0.000000
Bending = 4263.327717

Main Wing
  y-span        Chord      Ai         Cl        PCd          ICd        CmGeom    CmAirf@chord/4    XTrtop    XTrBot      XCP       BM
  -15.5234     1.8429    -3.425    0.077620    0.000000    0.004646   -0.534231   -0.034642     0.0000    0.0000    0.6114    0.0000
  -15.4174     1.8744    -2.211    0.122512    0.000000    0.004729   -0.727277   -0.050436     0.0000    0.0000    0.6297    0.0510
  -15.2060     1.9373    -1.392    0.154790    0.000000    0.003763   -0.826723   -0.056828     0.0000    0.0000    0.6085    0.6406
  -14.8908     2.0311    -0.916    0.175426    0.000000    0.002803   -0.871019   -0.061208     0.0000    0.0000    0.5937    3.0970
  -14.4739     2.1551    -0.657    0.188288    0.000000    0.002160   -0.864630   -0.064005     0.0000    0.0000    0.5845    9.7920
  -13.9580     2.3085    -0.512    0.195730    0.000000    0.001750   -0.821127   -0.065735     0.0000    0.0000    0.5799   24.2598
  -13.3469     2.4903    -0.428    0.199290    0.000000    0.001488   -0.754858   -0.066750     0.0000    0.0000    0.5788   51.2614
  -12.6445     2.6992    -0.379    0.200111    0.000000    0.001325   -0.677755   -0.067317     0.0000    0.0000    0.5802   96.7957
  -11.8558     2.9338    -0.355    0.199023    0.000000    0.001232   -0.598149   -0.067617     0.0000    0.0000    0.5836   168.0533
  -10.9861     3.1924    -0.346    0.196588    0.000000    0.001187   -0.521163   -0.067760     0.0000    0.0000    0.5887   273.3075
  -10.0414     3.4734    -0.348    0.193174    0.000000    0.001173   -0.449609   -0.067809     0.0000    0.0000    0.5953   421.7262
   -9.0280     3.7748    -0.358    0.189005    0.000000    0.001180   -0.384800   -0.067800     0.0000    0.0000    0.6034   623.0981
   -7.9530     4.0946    -0.372    0.184211    0.000000    0.001198   -0.327111   -0.067752     0.0000    0.0000    0.6129   887.4678
   -6.8237     4.4305    -0.391    0.178848    0.000000    0.001221   -0.276404   -0.067676     0.0000    0.0000    0.6241   1224.6832
   -5.6477     4.7802    -0.412    0.172918    0.000000    0.001243   -0.232261   -0.067575     0.0000    0.0000    0.6372   1643.8672
   -4.4332     5.1414    -0.434    0.166361    0.000000    0.001259   -0.194137   -0.067448     0.0000    0.0000    0.6527   2152.8297
   -3.1884     5.5117    -0.453    0.159033    0.000000    0.001257   -0.161461   -0.067278     0.0000    0.0000    0.6714   2757.4375
   -1.9218     5.8884    -0.458    0.150635    0.000000    0.001204   -0.133695   -0.067012     0.0000    0.0000    0.6939   3460.9541
   -0.6421     6.2690    -0.368    0.140455    0.000000    0.000904   -0.110496   -0.066675     0.0000    0.0000    0.7215   4263.3277
    0.6421     6.2690    -0.368    0.140455    0.000000    0.000904   -0.110496   -0.066675     0.0000    0.0000    0.7215   4263.3271
    1.9218     5.8884    -0.458    0.150635    0.000000    0.001204   -0.133695   -0.067012     0.0000    0.0000    0.6939   3460.9536
    3.1884     5.5117    -0.453    0.159033    0.000000    0.001257   -0.161461   -0.067278     0.0000    0.0000    0.6714   2757.4371
    4.4332     5.1414    -0.434    0.166361    0.000000    0.001259   -0.194137   -0.067448     0.0000    0.0000    0.6527   2152.8293
    5.6477     4.7802    -0.412    0.172918    0.000000    0.001243   -0.232261   -0.067575     0.0000    0.0000    0.6372   1643.8669
    6.8237     4.4305    -0.391    0.178848    0.000000    0.001221   -0.276404   -0.067676     0.0000    0.0000    0.6241   1224.6829
    7.9530     4.0946    -0.372    0.184211    0.000000    0.001198   -0.327111   -0.067752     0.0000    0.0000    0.6129   887.4675
    9.0280     3.7748    -0.358    0.189005    0.000000    0.001180   -0.384800   -0.067800     0.0000    0.0000    0.6034   623.0979
   10.0414     3.4734    -0.348    0.193174    0.000000    0.001173   -0.449609   -0.067809     0.0000    0.0000    0.5953   421.7261
   10.9861     3.1924    -0.346    0.196588    0.000000    0.001187   -0.521163   -0.067760     0.0000    0.0000    0.5887   273.3074
   11.8558     2.9338    -0.355    0.199023    0.000000    0.001232   -0.598149   -0.067617     0.0000    0.0000    0.5836   168.0532
   12.6445     2.6992    -0.379    0.200111    0.000000    0.001325   -0.677754   -0.067317     0.0000    0.0000    0.5802   96.7956
   13.3469     2.4903    -0.428    0.199290    0.000000    0.001488   -0.754857   -0.066750     0.0000    0.0000    0.5787   51.2614
   13.9580     2.3085    -0.512    0.195730    0.000000    0.001750   -0.821124   -0.065734     0.0000    0.0000    0.5799   24.2598
   14.4739     2.1551    -0.657    0.188288    0.000000    0.002160   -0.864622   -0.064004     0.0000    0.0000    0.5845    9.7920
   14.8908     2.0311    -0.916    0.175426    0.000000    0.002803   -0.871000   -0.061207     0.0000    0.0000    0.5937    3.0970
   15.2060     1.9373    -1.392    0.154790    0.000000    0.003763   -0.826626   -0.056831     0.0000    0.0000    0.6086    0.6406
   15.4174     1.8744    -2.211    0.122512    0.000000    0.004729   -0.726804   -0.050460     0.0000    0.0000    0.6303    0.0510
   15.5234     1.8429    -3.425    0.077620    0.000000    0.004646   -0.533364   -0.034683     0.0000    0.0000    0.6131    0.0000


Main Wing Cp Coefficients
 Panel     CtrlPt.x        CtrlPt.y        CtrlPt.z       Nx      Ny       Nz        Area       Cp
Main WingCp Coefficients
Strip 1
  13       1.095e+01      -1.552e+01       4.607e-01           0.026          -0.022          -0.999       1.423e-03          0.0154
  14       1.090e+01      -1.552e+01       4.643e-01          -0.099          -0.059          -0.993       4.206e-03          0.1006
  15       1.080e+01      -1.552e+01       4.659e-01           0.036          -0.017          -0.999       6.706e-03          0.1673
  16       1.065e+01      -1.552e+01       4.503e-01           0.159           0.023          -0.987       8.957e-03          0.1455
  17       1.047e+01      -1.552e+01       4.158e-01           0.210           0.042          -0.977       1.072e-02          0.0597
  18       1.026e+01      -1.552e+01       3.748e-01           0.180           0.030          -0.983       1.167e-02         -0.0643
  19       1.005e+01      -1.552e+01       3.450e-01           0.090          -0.008          -0.996       1.186e-02         -0.1534
  20       9.827e+00      -1.552e+01       3.334e-01           0.014          -0.044          -0.999       1.147e-02         -0.1752
  21       9.621e+00      -1.552e+01       3.359e-01          -0.040          -0.070          -0.997       1.047e-02         -0.1833
  22       9.439e+00      -1.552e+01       3.479e-01          -0.097          -0.099          -0.990       8.901e-03         -0.2076
  23       9.293e+00      -1.552e+01       3.677e-01          -0.181          -0.145          -0.973       6.867e-03         -0.2653
  24       9.191e+00      -1.552e+01       3.961e-01          -0.382          -0.256          -0.888       4.674e-03         -0.2622
  25       9.138e+00      -1.552e+01       4.367e-01          -0.776          -0.469          -0.422       3.262e-03          0.3469
  26       9.138e+00      -1.552e+01       4.843e-01          -0.776          -0.443           0.449       3.261e-03          0.2235
  27       9.191e+00      -1.551e+01       5.249e-01          -0.382          -0.203           0.902       4.670e-03         -0.4603
  28       9.293e+00      -1.551e+01       5.530e-01          -0.175          -0.084           0.981       6.849e-03         -0.3715
  29       9.439e+00      -1.551e+01       5.721e-01          -0.093          -0.039           0.995       8.884e-03         -0.2625
  30       9.621e+00      -1.551e+01       5.841e-01          -0.042          -0.012           0.999       1.046e-02         -0.2141
  31       9.827e+00      -1.551e+01       5.888e-01          -0.005           0.007           1.000       1.145e-02         -0.1898
  32       1.005e+01      -1.551e+01       5.853e-01           0.036           0.025           0.999       1.180e-02         -0.1753
  33       1.026e+01      -1.551e+01       5.720e-01           0.087           0.047           0.995       1.149e-02         -0.1463
  34       1.047e+01      -1.551e+01       5.499e-01           0.128           0.063           0.990       1.053e-02         -0.0980
  35       1.065e+01      -1.551e+01       5.240e-01           0.156           0.072           0.985       8.944e-03         -0.0601
  36       1.080e+01      -1.552e+01       4.996e-01           0.177           0.079           0.981       6.816e-03         -0.0529
  37       1.090e+01      -1.552e+01       4.804e-01           0.198           0.085           0.977       4.274e-03         -0.0963
  38       1.095e+01      -1.552e+01       4.667e-01           0.387           0.139           0.911       1.554e-03         -0.0045
Strip 2
  39       1.092e+01      -1.541e+01       4.576e-01           0.026          -0.022          -0.999       4.331e-03          0.0801
  40       1.087e+01      -1.541e+01       4.612e-01          -0.099          -0.059          -0.993       1.280e-02          0.1885
  41       1.076e+01      -1.541e+01       4.629e-01           0.036          -0.017          -0.999       2.042e-02          0.2677
  42       1.062e+01      -1.541e+01       4.470e-01           0.159           0.023          -0.987       2.727e-02          0.2240
  43       1.043e+01      -1.541e+01       4.119e-01           0.210           0.042          -0.977       3.262e-02          0.0967
  44       1.022e+01      -1.541e+01       3.702e-01           0.180           0.030          -0.983       3.554e-02         -0.0751
  45       9.999e+00      -1.541e+01       3.398e-01           0.090          -0.008          -0.996       3.610e-02         -0.1961
  46       9.777e+00      -1.541e+01       3.281e-01           0.014          -0.044          -0.999       3.491e-02         -0.2247
  47       9.567e+00      -1.541e+01       3.306e-01          -0.040          -0.070          -0.997       3.188e-02         -0.2346
  48       9.382e+00      -1.541e+01       3.428e-01          -0.097          -0.099          -0.990       2.710e-02         -0.2650
  49       9.234e+00      -1.541e+01       3.629e-01          -0.181          -0.145          -0.973       2.091e-02         -0.3250
  50       9.129e+00      -1.541e+01       3.919e-01          -0.381          -0.256          -0.888       1.423e-02         -0.2829
  51       9.076e+00      -1.541e+01       4.332e-01          -0.776          -0.469          -0.423       9.932e-03          0.4357
  52       9.076e+00      -1.541e+01       4.816e-01          -0.776          -0.443           0.449       9.926e-03          0.2757
  53       9.129e+00      -1.541e+01       5.229e-01          -0.382          -0.203           0.902       1.422e-02         -0.5348
  54       9.234e+00      -1.541e+01       5.514e-01          -0.175          -0.084           0.981       2.085e-02         -0.4637
  55       9.382e+00      -1.541e+01       5.709e-01          -0.093          -0.039           0.995       2.704e-02         -0.3363
  56       9.567e+00      -1.541e+01       5.831e-01          -0.042          -0.012           0.999       3.183e-02         -0.2706
  57       9.777e+00      -1.541e+01       5.878e-01          -0.005           0.007           1.000       3.485e-02         -0.2379
  58       9.999e+00      -1.541e+01       5.843e-01           0.036           0.025           0.999       3.591e-02         -0.2217
  59       1.022e+01      -1.541e+01       5.707e-01           0.087           0.047           0.995       3.499e-02         -0.1891
  60       1.043e+01      -1.541e+01       5.482e-01           0.128           0.063           0.990       3.207e-02         -0.1331
  61       1.062e+01      -1.541e+01       5.220e-01           0.156           0.072           0.985       2.723e-02         -0.0852
  62       1.076e+01      -1.541e+01       4.972e-01           0.177           0.079           0.981       2.075e-02         -0.0574
  63       1.087e+01      -1.541e+01       4.775e-01           0.198           0.085           0.977       1.301e-02         -0.0682
  64       1.092e+01      -1.541e+01       4.637e-01           0.387           0.139           0.911       4.732e-03          0.0391
Strip 3
  65       1.086e+01      -1.520e+01       4.513e-01           0.026          -0.022          -0.999       7.426e-03          0.1291
  66       1.081e+01      -1.520e+01       4.551e-01          -0.099          -0.059          -0.993       2.196e-02          0.2415
  67       1.070e+01      -1.520e+01       4.568e-01           0.036          -0.017          -0.999       3.501e-02          0.3169
  68       1.054e+01      -1.520e+01       4.404e-01           0.159           0.023          -0.987       4.675e-02          0.2586
  69       1.035e+01      -1.520e+01       4.041e-01           0.210           0.042          -0.977       5.593e-02          0.1095
  70       1.014e+01      -1.520e+01       3.610e-01           0.180           0.030          -0.983       6.093e-02         -0.0892
  71       9.906e+00      -1.520e+01       3.296e-01           0.090          -0.008          -0.996       6.190e-02         -0.2332
  72       9.676e+00      -1.520e+01       3.174e-01           0.014          -0.044          -0.999       5.986e-02         -0.2705
  73       9.460e+00      -1.520e+01       3.201e-01          -0.040          -0.070          -0.997       5.467e-02         -0.2786
  74       9.269e+00      -1.520e+01       3.327e-01          -0.097          -0.099          -0.990       4.647e-02         -0.2948
  75       9.115e+00      -1.520e+01       3.535e-01          -0.181          -0.145          -0.973       3.585e-02         -0.3223
  76       9.007e+00      -1.520e+01       3.834e-01          -0.381          -0.256          -0.888       2.441e-02         -0.2343
  77       8.952e+00      -1.520e+01       4.261e-01          -0.776          -0.469          -0.423       1.703e-02          0.5352
  78       8.952e+00      -1.520e+01       4.761e-01          -0.776          -0.443           0.449       1.702e-02          0.3445
  79       9.007e+00      -1.520e+01       5.188e-01          -0.382          -0.203           0.902       2.437e-02         -0.5387
  80       9.115e+00      -1.520e+01       5.483e-01          -0.175          -0.084           0.981       3.574e-02         -0.5002
  81       9.269e+00      -1.520e+01       5.684e-01          -0.093          -0.039           0.995       4.637e-02         -0.3928
  82       9.460e+00      -1.520e+01       5.810e-01          -0.042          -0.012           0.999       5.458e-02         -0.3310
  83       9.676e+00      -1.520e+01       5.859e-01          -0.005           0.007           1.000       5.976e-02         -0.2940
  84       9.906e+00      -1.520e+01       5.823e-01           0.036           0.025           0.999       6.158e-02         -0.2729
  85       1.014e+01      -1.520e+01       5.683e-01           0.087           0.047           0.995       5.999e-02         -0.2318
  86       1.035e+01      -1.520e+01       5.450e-01           0.128           0.063           0.990       5.499e-02         -0.1604
  87       1.054e+01      -1.520e+01       5.179e-01           0.156           0.072           0.985       4.670e-02         -0.0913
  88       1.070e+01      -1.520e+01       4.922e-01           0.176           0.079           0.981       3.559e-02         -0.0397
  89       1.081e+01      -1.520e+01       4.720e-01           0.198           0.085           0.977       2.232e-02         -0.0245
  90       1.086e+01      -1.520e+01       4.576e-01           0.387           0.139           0.911       8.114e-03          0.0899
Strip 4
  91       1.077e+01      -1.488e+01       4.420e-01           0.026          -0.022          -0.999       1.083e-02          0.1444
  92       1.071e+01      -1.488e+01       4.459e-01          -0.099          -0.059          -0.993       3.201e-02          0.2569
  93       1.060e+01      -1.488e+01       4.477e-01           0.036          -0.017          -0.999       5.103e-02          0.3308
  94       1.044e+01      -1.488e+01       4.305e-01           0.159           0.023          -0.987       6.815e-02          0.2670
  95       1.024e+01      -1.489e+01       3.925e-01           0.210           0.042          -0.977       8.152e-02          0.1081
  96       1.001e+01      -1.489e+01       3.473e-01           0.180           0.030          -0.983       8.881e-02         -0.1031
  97       9.768e+00      -1.489e+01       3.144e-01           0.090          -0.008          -0.996       9.022e-02         -0.2568
  98       9.527e+00      -1.489e+01       3.016e-01           0.014          -0.044          -0.999       8.726e-02         -0.2950
  99       9.300e+00      -1.489e+01       3.044e-01          -0.040          -0.070          -0.997       7.970e-02         -0.2945
 100       9.100e+00      -1.489e+01       3.176e-01          -0.096          -0.099          -0.990       6.775e-02         -0.2962
 101       8.938e+00      -1.489e+01       3.394e-01          -0.181          -0.145          -0.973       5.227e-02         -0.3106
 102       8.825e+00      -1.489e+01       3.708e-01          -0.381          -0.256          -0.888       3.560e-02         -0.2103
 103       8.767e+00      -1.488e+01       4.155e-01          -0.775          -0.468          -0.424       2.484e-02          0.5630
 104       8.767e+00      -1.488e+01       4.680e-01          -0.776          -0.443           0.448       2.480e-02          0.3551
 105       8.825e+00      -1.488e+01       5.127e-01          -0.382          -0.203           0.902       3.551e-02         -0.5470
 106       8.938e+00      -1.488e+01       5.437e-01          -0.176          -0.084           0.981       5.210e-02         -0.5144
 107       9.100e+00      -1.488e+01       5.648e-01          -0.093          -0.039           0.995       6.759e-02         -0.4162
 108       9.300e+00      -1.488e+01       5.780e-01          -0.042          -0.012           0.999       7.956e-02         -0.3656
 109       9.527e+00      -1.488e+01       5.831e-01          -0.005           0.007           1.000       8.712e-02         -0.3344
 110       9.768e+00      -1.488e+01       5.793e-01           0.036           0.025           0.999       8.977e-02         -0.3133
 111       1.001e+01      -1.488e+01       5.646e-01           0.087           0.047           0.995       8.746e-02         -0.2671
 112       1.024e+01      -1.488e+01       5.402e-01           0.128           0.063           0.990       8.017e-02         -0.1864
 113       1.044e+01      -1.488e+01       5.118e-01           0.156           0.072           0.985       6.808e-02         -0.1061
 114       1.060e+01      -1.488e+01       4.849e-01           0.176           0.079           0.981       5.188e-02         -0.0436
 115       1.071e+01      -1.488e+01       4.636e-01           0.198           0.085           0.977       3.253e-02         -0.0172
 116       1.077e+01      -1.488e+01       4.486e-01           0.387           0.139           0.911       1.183e-02          0.1010
Strip 5
 117       1.065e+01      -1.447e+01       4.296e-01           0.026          -0.022          -0.999       1.463e-02          0.1466
 118       1.059e+01      -1.447e+01       4.338e-01          -0.099          -0.059          -0.993       4.327e-02          0.2594
 119       1.047e+01      -1.447e+01       4.357e-01           0.036          -0.017          -0.999       6.898e-02          0.3327
 120       1.029e+01      -1.447e+01       4.175e-01           0.159           0.023          -0.987       9.211e-02          0.2669
 121       1.008e+01      -1.447e+01       3.771e-01           0.210           0.042          -0.977       1.102e-01          0.1045
 122       9.841e+00      -1.447e+01       3.292e-01           0.180           0.030          -0.983       1.200e-01         -0.1110
 123       9.585e+00      -1.447e+01       2.942e-01           0.090          -0.008          -0.996       1.219e-01         -0.2667
 124       9.329e+00      -1.447e+01       2.807e-01           0.014          -0.044          -0.999       1.179e-01         -0.3024
 125       9.088e+00      -1.447e+01       2.836e-01          -0.040          -0.070          -0.997       1.077e-01         -0.2965
 126       8.876e+00      -1.447e+01       2.977e-01          -0.096          -0.099          -0.990       9.159e-02         -0.2929
 127       8.705e+00      -1.447e+01       3.208e-01          -0.181          -0.145          -0.973       7.067e-02         -0.3035
 128       8.585e+00      -1.447e+01       3.541e-01          -0.381          -0.256          -0.889       4.814e-02         -0.1984
 129       8.523e+00      -1.447e+01       4.015e-01          -0.775          -0.468          -0.425       3.359e-02          0.5738
 130       8.523e+00      -1.447e+01       4.572e-01          -0.777          -0.444           0.447       3.350e-02          0.3559
 131       8.585e+00      -1.447e+01       5.047e-01          -0.382          -0.203           0.902       4.798e-02         -0.5552
 132       8.705e+00      -1.446e+01       5.376e-01          -0.176          -0.084           0.981       7.041e-02         -0.5233
 133       8.876e+00      -1.446e+01       5.599e-01          -0.093          -0.039           0.995       9.135e-02         -0.4272
 134       9.088e+00      -1.446e+01       5.739e-01          -0.042          -0.012           0.999       1.075e-01         -0.3816
 135       9.329e+00      -1.446e+01       5.794e-01          -0.005           0.007           1.000       1.178e-01         -0.3556
 136       9.585e+00      -1.446e+01       5.753e-01           0.036           0.025           0.999       1.213e-01         -0.3373
 137       9.841e+00      -1.446e+01       5.597e-01           0.087           0.047           0.995       1.182e-01         -0.2901
 138       1.008e+01      -1.447e+01       5.339e-01           0.128           0.063           0.990       1.084e-01         -0.2051
 139       1.029e+01      -1.447e+01       5.037e-01           0.155           0.072           0.985       9.203e-02         -0.1191
 140       1.047e+01      -1.447e+01       4.751e-01           0.176           0.079           0.981       7.013e-02         -0.0511
 141       1.059e+01      -1.447e+01       4.526e-01           0.198           0.085           0.977       4.398e-02         -0.0198
 142       1.065e+01      -1.447e+01       4.367e-01           0.387           0.139           0.911       1.600e-02          0.1000
Strip 6
 143       1.050e+01      -1.395e+01       4.143e-01           0.026          -0.022          -0.999       1.894e-02          0.1453
 144       1.043e+01      -1.395e+01       4.188e-01          -0.099          -0.059          -0.993       5.601e-02          0.2586
 145       1.030e+01      -1.395e+01       4.209e-01           0.036          -0.017          -0.999       8.927e-02          0.3322
 146       1.012e+01      -1.395e+01       4.013e-01           0.159           0.023          -0.987       1.192e-01          0.2658
 147       9.891e+00      -1.395e+01       3.580e-01           0.210           0.042          -0.977       1.426e-01          0.1024
 148       9.633e+00      -1.395e+01       3.067e-01           0.180           0.030          -0.983       1.553e-01         -0.1140
 149       9.359e+00      -1.395e+01       2.693e-01           0.090          -0.008          -0.996       1.578e-01         -0.2695
 150       9.084e+00      -1.396e+01       2.548e-01           0.014          -0.044          -0.999       1.527e-01         -0.3036
 151       8.826e+00      -1.396e+01       2.579e-01          -0.040          -0.070          -0.997       1.394e-01         -0.2956
 152       8.599e+00      -1.395e+01       2.730e-01          -0.096          -0.099          -0.990       1.185e-01         -0.2905
 153       8.416e+00      -1.395e+01       2.977e-01          -0.181          -0.145          -0.973       9.149e-02         -0.3001
 154       8.287e+00      -1.395e+01       3.334e-01          -0.381          -0.255          -0.889       6.233e-02         -0.1931
 155       8.221e+00      -1.395e+01       3.842e-01          -0.775          -0.468          -0.425       4.350e-02          0.5780
 156       8.221e+00      -1.395e+01       4.439e-01          -0.777          -0.444           0.446       4.334e-02          0.3558
 157       8.287e+00      -1.395e+01       4.948e-01          -0.382          -0.203           0.901       6.207e-02         -0.5604
 158       8.416e+00      -1.395e+01       5.300e-01          -0.176          -0.084           0.981       9.110e-02         -0.5286
 159       8.599e+00      -1.395e+01       5.539e-01          -0.093          -0.039           0.995       1.182e-01         -0.4329
 160       8.826e+00      -1.395e+01       5.689e-01          -0.042          -0.012           0.999       1.392e-01         -0.3891
 161       9.084e+00      -1.395e+01       5.748e-01          -0.005           0.007           1.000       1.524e-01         -0.3656
 162       9.359e+00      -1.395e+01       5.704e-01           0.036           0.025           0.999       1.571e-01         -0.3492
 163       9.633e+00      -1.395e+01       5.537e-01           0.087           0.047           0.995       1.530e-01         -0.3025
 164       9.891e+00      -1.395e+01       5.260e-01           0.128           0.063           0.990       1.403e-01         -0.2160
 165       1.012e+01      -1.395e+01       4.937e-01           0.155           0.072           0.985       1.191e-01         -0.1277
 166       1.030e+01      -1.395e+01       4.631e-01           0.176           0.079           0.981       9.078e-02         -0.0572
 167       1.043e+01      -1.395e+01       4.389e-01           0.198           0.085           0.977       5.693e-02         -0.0238
 168       1.050e+01      -1.395e+01       4.219e-01           0.387           0.139           0.911       2.071e-02          0.0967
Strip 7
 169       1.032e+01      -1.334e+01       3.962e-01           0.026          -0.022          -0.999       2.381e-02          0.1440
 170       1.025e+01      -1.334e+01       4.010e-01          -0.099          -0.059          -0.993       7.042e-02          0.2576
 171       1.011e+01      -1.334e+01       4.033e-01           0.036          -0.017          -0.999       1.122e-01          0.3317
 172       9.910e+00      -1.334e+01       3.822e-01           0.159           0.023          -0.987       1.498e-01          0.2653
 173       9.665e+00      -1.334e+01       3.355e-01           0.210           0.042          -0.977       1.792e-01          0.1017
 174       9.386e+00      -1.334e+01       2.801e-01           0.180           0.030          -0.983       1.952e-01         -0.1148
 175       9.090e+00      -1.334e+01       2.397e-01           0.090          -0.008          -0.996       1.984e-01         -0.2701
 176       8.794e+00      -1.334e+01       2.241e-01           0.014          -0.044          -0.999       1.919e-01         -0.3035
 177       8.516e+00      -1.334e+01       2.274e-01          -0.040          -0.070          -0.997       1.753e-01         -0.2949
 178       8.271e+00      -1.334e+01       2.437e-01          -0.096          -0.099          -0.990       1.491e-01         -0.2896
 179       8.073e+00      -1.334e+01       2.704e-01          -0.181          -0.145          -0.973       1.151e-01         -0.2991
 180       7.934e+00      -1.334e+01       3.089e-01          -0.381          -0.255          -0.889       7.840e-02         -0.1918
 181       7.863e+00      -1.334e+01       3.638e-01          -0.774          -0.468          -0.426       5.471e-02          0.5788
 182       7.863e+00      -1.334e+01       4.281e-01          -0.777          -0.444           0.445       5.447e-02          0.3572
 183       7.934e+00      -1.334e+01       4.830e-01          -0.382          -0.203           0.901       7.801e-02         -0.5614
 184       8.073e+00      -1.334e+01       5.210e-01          -0.176          -0.084           0.981       1.145e-01         -0.5304
 185       8.271e+00      -1.334e+01       5.468e-01          -0.093          -0.039           0.995       1.486e-01         -0.4354
 186       8.516e+00      -1.334e+01       5.630e-01          -0.042          -0.012           0.999       1.750e-01         -0.3924
 187       8.794e+00      -1.334e+01       5.693e-01          -0.005           0.007           1.000       1.916e-01         -0.3700
 188       9.090e+00      -1.334e+01       5.646e-01           0.036           0.025           0.999       1.975e-01         -0.3547
 189       9.386e+00      -1.334e+01       5.466e-01           0.087           0.047           0.995       1.924e-01         -0.3083
 190       9.665e+00      -1.334e+01       5.167e-01           0.128           0.063           0.990       1.764e-01         -0.2215
 191       9.910e+00      -1.334e+01       4.818e-01           0.155           0.072           0.985       1.498e-01         -0.1323
 192       1.011e+01      -1.334e+01       4.488e-01           0.176           0.079           0.981       1.142e-01         -0.0608
 193       1.025e+01      -1.334e+01       4.228e-01           0.197           0.085           0.977       7.159e-02         -0.0267
 194       1.032e+01      -1.334e+01       4.044e-01           0.387           0.139           0.912       2.604e-02          0.0940
Strip 8
 195       1.011e+01      -1.264e+01       3.754e-01           0.026          -0.022          -0.999       2.929e-02          0.1432
 196       1.003e+01      -1.264e+01       3.806e-01          -0.099          -0.059          -0.993       8.665e-02          0.2571
 197       9.884e+00      -1.264e+01       3.831e-01           0.036          -0.017          -0.999       1.381e-01          0.3315
 198       9.670e+00      -1.264e+01       3.602e-01           0.159           0.023          -0.987       1.843e-01          0.2652
 199       9.404e+00      -1.264e+01       3.096e-01           0.210           0.042          -0.977       2.205e-01          0.1015
 200       9.102e+00      -1.264e+01       2.496e-01           0.180           0.030          -0.983       2.402e-01         -0.1152
 201       8.782e+00      -1.264e+01       2.058e-01           0.090          -0.008          -0.996       2.441e-01         -0.2704
 202       8.461e+00      -1.264e+01       1.888e-01           0.014          -0.044          -0.999       2.361e-01         -0.3037
 203       8.159e+00      -1.264e+01       1.925e-01          -0.040          -0.070          -0.997       2.157e-01         -0.2950
 204       7.893e+00      -1.264e+01       2.101e-01          -0.096          -0.099          -0.990       1.834e-01         -0.2899
 205       7.679e+00      -1.264e+01       2.391e-01          -0.181          -0.145          -0.973       1.416e-01         -0.3000
 206       7.529e+00      -1.264e+01       2.808e-01          -0.380          -0.255          -0.889       9.651e-02         -0.1938
 207       7.452e+00      -1.264e+01       3.402e-01          -0.774          -0.468          -0.427       6.735e-02          0.5774
 208       7.452e+00      -1.264e+01       4.100e-01          -0.778          -0.444           0.444       6.698e-02          0.3605
 209       7.529e+00      -1.264e+01       4.695e-01          -0.383          -0.204           0.901       9.593e-02         -0.5590
 210       7.679e+00      -1.264e+01       5.106e-01          -0.176          -0.084           0.981       1.409e-01         -0.5295
 211       7.893e+00      -1.264e+01       5.386e-01          -0.093          -0.039           0.995       1.828e-01         -0.4354
 212       8.159e+00      -1.264e+01       5.562e-01          -0.042          -0.012           0.999       2.153e-01         -0.3932
 213       8.461e+00      -1.264e+01       5.630e-01          -0.005           0.007           1.000       2.358e-01         -0.3716
 214       8.782e+00      -1.264e+01       5.580e-01           0.036           0.025           0.999       2.430e-01         -0.3569
 215       9.102e+00      -1.264e+01       5.384e-01           0.087           0.047           0.995       2.368e-01         -0.3109
 216       9.404e+00      -1.264e+01       5.060e-01           0.128           0.063           0.990       2.171e-01         -0.2240
 217       9.670e+00      -1.264e+01       4.682e-01           0.155           0.072           0.985       1.843e-01         -0.1346
 218       9.884e+00      -1.264e+01       4.324e-01           0.176           0.079           0.981       1.405e-01         -0.0628
 219       1.003e+01      -1.264e+01       4.042e-01           0.197           0.085           0.977       8.809e-02         -0.0282
 220       1.011e+01      -1.264e+01       3.842e-01           0.387           0.139           0.912       3.205e-02          0.0925
Strip 9
 221       9.881e+00      -1.185e+01       3.520e-01           0.026          -0.022          -0.999       3.541e-02          0.1428
 222       9.797e+00      -1.185e+01       3.577e-01          -0.099          -0.059          -0.993       1.048e-01          0.2569
 223       9.634e+00      -1.185e+01       3.604e-01           0.036          -0.017          -0.999       1.669e-01          0.3315
 224       9.401e+00      -1.185e+01       3.355e-01           0.159           0.023          -0.987       2.228e-01          0.2652
 225       9.112e+00      -1.185e+01       2.805e-01           0.210           0.042          -0.977       2.665e-01          0.1013
 226       8.784e+00      -1.185e+01       2.153e-01           0.180           0.030          -0.983       2.903e-01         -0.1155
 227       8.436e+00      -1.185e+01       1.677e-01           0.090          -0.008          -0.996       2.951e-01         -0.2709
 228       8.087e+00      -1.185e+01       1.492e-01           0.014          -0.044          -0.999       2.855e-01         -0.3043
 229       7.759e+00      -1.185e+01       1.532e-01          -0.040          -0.070          -0.997       2.608e-01         -0.2959
 230       7.470e+00      -1.185e+01       1.724e-01          -0.096          -0.099          -0.990       2.218e-01         -0.2913
 231       7.237e+00      -1.185e+01       2.038e-01          -0.181          -0.145          -0.973       1.712e-01         -0.3025
 232       7.074e+00      -1.185e+01       2.492e-01          -0.380          -0.255          -0.889       1.167e-01         -0.1980
 233       6.990e+00      -1.185e+01       3.138e-01          -0.773          -0.467          -0.428       8.146e-02          0.5746
 234       6.990e+00      -1.185e+01       3.896e-01          -0.778          -0.444           0.444       8.094e-02          0.3655
 235       7.074e+00      -1.185e+01       4.543e-01          -0.383          -0.204           0.901       1.159e-01         -0.5534
 236       7.237e+00      -1.185e+01       4.990e-01          -0.176          -0.084           0.981       1.703e-01         -0.5266
 237       7.470e+00      -1.185e+01       5.295e-01          -0.093          -0.039           0.995       2.210e-01         -0.4338
 238       7.759e+00      -1.185e+01       5.485e-01          -0.042          -0.012           0.999       2.602e-01         -0.3925
 239       8.087e+00      -1.185e+01       5.560e-01          -0.005           0.007           1.000       2.850e-01         -0.3715
 240       8.436e+00      -1.185e+01       5.505e-01           0.036           0.025           0.999       2.937e-01         -0.3573
 241       8.784e+00      -1.185e+01       5.292e-01           0.087           0.047           0.995       2.863e-01         -0.3115
 242       9.112e+00      -1.185e+01       4.940e-01           0.128           0.063           0.990       2.624e-01         -0.2249
 243       9.401e+00      -1.185e+01       4.529e-01           0.155           0.072           0.985       2.229e-01         -0.1354
 244       9.634e+00      -1.185e+01       4.140e-01           0.176           0.079           0.981       1.698e-01         -0.0635
 245       9.797e+00      -1.185e+01       3.833e-01           0.197           0.085           0.977       1.065e-01         -0.0290
 246       9.881e+00      -1.185e+01       3.616e-01           0.387           0.139           0.912       3.875e-02          0.0917
Strip 10
 247       9.627e+00      -1.098e+01       3.263e-01           0.026          -0.022          -0.999       4.216e-02          0.1426
 248       9.535e+00      -1.098e+01       3.324e-01          -0.099          -0.059          -0.993       1.247e-01          0.2567
 249       9.358e+00      -1.098e+01       3.353e-01           0.036          -0.017          -0.999       1.987e-01          0.3314
 250       9.104e+00      -1.098e+01       3.082e-01           0.159           0.023          -0.987       2.653e-01          0.2651
 251       8.790e+00      -1.098e+01       2.484e-01           0.210           0.042          -0.977       3.172e-01          0.1011
 252       8.433e+00      -1.098e+01       1.774e-01           0.180           0.030          -0.983       3.456e-01         -0.1161
 253       8.054e+00      -1.098e+01       1.256e-01           0.090          -0.008          -0.996       3.512e-01         -0.2718
 254       7.674e+00      -1.098e+01       1.056e-01           0.014          -0.044          -0.999       3.399e-01         -0.3054
 255       7.317e+00      -1.098e+01       1.099e-01          -0.040          -0.070          -0.997       3.105e-01         -0.2975
 256       7.003e+00      -1.098e+01       1.307e-01          -0.096          -0.099          -0.990       2.641e-01         -0.2936
 257       6.750e+00      -1.098e+01       1.650e-01          -0.181          -0.145          -0.973       2.039e-01         -0.3060
 258       6.572e+00      -1.098e+01       2.143e-01          -0.380          -0.255          -0.889       1.390e-01         -0.2041
 259       6.481e+00      -1.098e+01       2.846e-01          -0.773          -0.467          -0.429       9.702e-02          0.5706
 260       6.481e+00      -1.098e+01       3.672e-01          -0.779          -0.445           0.443       9.633e-02          0.3717
 261       6.572e+00      -1.098e+01       4.375e-01          -0.383          -0.204           0.901       1.380e-01         -0.5458
 262       6.750e+00      -1.098e+01       4.862e-01          -0.176          -0.084           0.981       2.027e-01         -0.5220
 263       7.003e+00      -1.098e+01       5.193e-01          -0.093          -0.039           0.995       2.631e-01         -0.4310
 264       7.317e+00      -1.098e+01       5.401e-01          -0.042          -0.012           0.999       3.098e-01         -0.3906
 265       7.674e+00      -1.098e+01       5.482e-01          -0.005           0.007           1.000       3.393e-01         -0.3703
 266       8.054e+00      -1.098e+01       5.422e-01           0.036           0.025           0.999       3.497e-01         -0.3566
 267       8.433e+00      -1.098e+01       5.190e-01           0.087           0.047           0.995       3.408e-01         -0.3112
 268       8.790e+00      -1.098e+01       4.807e-01           0.128           0.063           0.990       3.125e-01         -0.2248
 269       9.104e+00      -1.098e+01       4.360e-01           0.155           0.072           0.985       2.654e-01         -0.1356
 270       9.358e+00      -1.098e+01       3.937e-01           0.176           0.079           0.981       2.022e-01         -0.0638
 271       9.535e+00      -1.098e+01       3.603e-01           0.197           0.085           0.977       1.268e-01         -0.0292
 272       9.627e+00      -1.098e+01       3.367e-01           0.387           0.139           0.912       4.615e-02          0.0913
Strip 11
 273       9.350e+00      -1.004e+01       2.983e-01           0.026          -0.022          -0.999       4.950e-02          0.1424
 274       9.251e+00      -1.004e+01       3.050e-01          -0.099          -0.059          -0.993       1.465e-01          0.2566
 275       9.058e+00      -1.004e+01       3.081e-01           0.036          -0.017          -0.999       2.334e-01          0.3314
 276       8.782e+00      -1.004e+01       2.787e-01           0.159           0.023          -0.987       3.114e-01          0.2650
 277       8.440e+00      -1.004e+01       2.135e-01           0.210           0.042          -0.977       3.724e-01          0.1008
 278       8.051e+00      -1.004e+01       1.363e-01           0.181           0.030          -0.983       4.057e-01         -0.1168
 279       7.639e+00      -1.004e+01       7.995e-02           0.090          -0.008          -0.996       4.124e-01         -0.2729
 280       7.226e+00      -1.004e+01       5.812e-02           0.014          -0.044          -0.999       3.990e-01         -0.3070
 281       6.838e+00      -1.004e+01       6.280e-02          -0.040          -0.070          -0.997       3.646e-01         -0.2994
 282       6.496e+00      -1.004e+01       8.552e-02          -0.096          -0.099          -0.990       3.101e-01         -0.2964
 283       6.220e+00      -1.004e+01       1.228e-01          -0.181          -0.145          -0.973       2.394e-01         -0.3105
 284       6.027e+00      -1.004e+01       1.765e-01          -0.380          -0.255          -0.889       1.633e-01         -0.2116
 285       5.927e+00      -1.004e+01       2.530e-01          -0.773          -0.467          -0.430       1.140e-01          0.5658
 286       5.927e+00      -1.004e+01       3.428e-01          -0.779          -0.445           0.442       1.131e-01          0.3789
 287       6.027e+00      -1.004e+01       4.193e-01          -0.383          -0.204           0.901       1.619e-01         -0.5362
 288       6.220e+00      -1.004e+01       4.723e-01          -0.176          -0.084           0.981       2.379e-01         -0.5162
 289       6.496e+00      -1.003e+01       5.083e-01          -0.093          -0.039           0.995       3.089e-01         -0.4273
 290       6.838e+00      -1.003e+01       5.309e-01          -0.042          -0.012           0.999       3.638e-01         -0.3880
 291       7.226e+00      -1.003e+01       5.398e-01          -0.005           0.007           1.000       3.984e-01         -0.3684
 292       7.639e+00      -1.003e+01       5.332e-01           0.036           0.025           0.999       4.107e-01         -0.3552
 293       8.051e+00      -1.003e+01       5.080e-01           0.087           0.047           0.995       4.002e-01         -0.3103
 294       8.440e+00      -1.004e+01       4.664e-01           0.128           0.063           0.990       3.669e-01         -0.2243
 295       8.782e+00      -1.004e+01       4.177e-01           0.155           0.072           0.985       3.116e-01         -0.1353
 296       9.058e+00      -1.004e+01       3.716e-01           0.176           0.079           0.981       2.375e-01         -0.0637
 297       9.251e+00      -1.004e+01       3.353e-01           0.197           0.085           0.977       1.489e-01         -0.0293
 298       9.350e+00      -1.004e+01       3.096e-01           0.387           0.139           0.912       5.420e-02          0.0911
Strip 12
 299       9.054e+00      -9.024e+00       2.683e-01           0.026          -0.022          -0.999       5.738e-02          0.1422
 300       8.946e+00      -9.024e+00       2.755e-01          -0.099          -0.059          -0.993       1.698e-01          0.2565
 301       8.736e+00      -9.024e+00       2.789e-01           0.036          -0.017          -0.999       2.705e-01          0.3313
 302       8.436e+00      -9.024e+00       2.469e-01           0.159           0.023          -0.987       3.609e-01          0.2648
 303       8.065e+00      -9.025e+00       1.762e-01           0.210           0.042          -0.977       4.316e-01          0.1003
 304       7.642e+00      -9.026e+00       9.222e-02           0.181           0.030          -0.983       4.702e-01         -0.1177
 305       7.194e+00      -9.026e+00       3.097e-02           0.090          -0.008          -0.996       4.779e-01         -0.2743
 306       6.746e+00      -9.026e+00       7.244e-03           0.014          -0.044          -0.999       4.625e-01         -0.3088
 307       6.323e+00      -9.026e+00       1.233e-02          -0.040          -0.070          -0.997       4.226e-01         -0.3018
 308       5.951e+00      -9.026e+00       3.702e-02          -0.096          -0.099          -0.990       3.594e-01         -0.2996
 309       5.652e+00      -9.026e+00       7.752e-02          -0.180          -0.145          -0.973       2.776e-01         -0.3154
 310       5.442e+00      -9.025e+00       1.358e-01          -0.380          -0.255          -0.889       1.893e-01         -0.2202
 311       5.334e+00      -9.024e+00       2.190e-01          -0.773          -0.467          -0.430       1.321e-01          0.5603
 312       5.334e+00      -9.024e+00       3.166e-01          -0.779          -0.445           0.442       1.310e-01          0.3870
 313       5.442e+00      -9.023e+00       3.998e-01          -0.383          -0.204           0.901       1.876e-01         -0.5251
 314       5.652e+00      -9.022e+00       4.574e-01          -0.176          -0.084           0.981       2.757e-01         -0.5092
 315       5.951e+00      -9.022e+00       4.966e-01          -0.093          -0.039           0.995       3.580e-01         -0.4227
 316       6.323e+00      -9.022e+00       5.211e-01          -0.042          -0.012           0.999       4.216e-01         -0.3847
 317       6.746e+00      -9.022e+00       5.307e-01          -0.005           0.007           1.000       4.618e-01         -0.3660
 318       7.194e+00      -9.022e+00       5.236e-01           0.036           0.025           0.999       4.760e-01         -0.3534
 319       7.642e+00      -9.022e+00       4.962e-01           0.087           0.047           0.995       4.639e-01         -0.3090
 320       8.065e+00      -9.023e+00       4.509e-01           0.128           0.063           0.990       4.253e-01         -0.2234
 321       8.436e+00      -9.023e+00       3.980e-01           0.155           0.072           0.985       3.612e-01         -0.1348
 322       8.736e+00      -9.023e+00       3.480e-01           0.176           0.079           0.981       2.753e-01         -0.0634
 323       8.946e+00      -9.024e+00       3.085e-01           0.197           0.085           0.977       1.726e-01         -0.0292
 324       9.054e+00      -9.024e+00       2.806e-01           0.387           0.139           0.912       6.283e-02          0.0909
Strip 13
 325       8.739e+00      -7.950e+00       2.364e-01           0.026          -0.022          -0.999       6.569e-02          0.1419
 326       8.622e+00      -7.949e+00       2.443e-01          -0.099          -0.059          -0.993       1.944e-01          0.2562
 327       8.395e+00      -7.949e+00       2.480e-01           0.036          -0.017          -0.999       3.097e-01          0.3311
 328       8.070e+00      -7.950e+00       2.133e-01           0.159           0.023          -0.987       4.132e-01          0.2646
 329       7.666e+00      -7.950e+00       1.365e-01           0.210           0.042          -0.977       4.941e-01          0.0998
 330       7.208e+00      -7.951e+00       4.544e-02           0.181           0.030          -0.983       5.383e-01         -0.1188
 331       6.722e+00      -7.951e+00      -2.100e-02           0.091          -0.008          -0.996       5.472e-01         -0.2759
 332       6.236e+00      -7.951e+00      -4.673e-02           0.014          -0.044          -0.999       5.295e-01         -0.3109
 333       5.777e+00      -7.951e+00      -4.122e-02          -0.040          -0.070          -0.997       4.839e-01         -0.3045
 334       5.374e+00      -7.951e+00      -1.443e-02          -0.096          -0.099          -0.990       4.116e-01         -0.3032
 335       5.049e+00      -7.951e+00       2.950e-02          -0.180          -0.145          -0.973       3.179e-01         -0.3209
 336       4.822e+00      -7.950e+00       9.277e-02          -0.380          -0.255          -0.889       2.168e-01         -0.2295
 337       4.704e+00      -7.950e+00       1.830e-01          -0.772          -0.467          -0.431       1.513e-01          0.5541
 338       4.704e+00      -7.949e+00       2.889e-01          -0.779          -0.445           0.441       1.499e-01          0.3958
 339       4.822e+00      -7.949e+00       3.791e-01          -0.383          -0.204           0.901       2.147e-01         -0.5122
 340       5.049e+00      -7.948e+00       4.416e-01          -0.176          -0.084           0.981       3.156e-01         -0.5012
 341       5.374e+00      -7.948e+00       4.841e-01          -0.093          -0.039           0.995       4.098e-01         -0.4174
 342       5.777e+00      -7.948e+00       5.107e-01          -0.042          -0.012           0.999       4.827e-01         -0.3809
 343       6.236e+00      -7.948e+00       5.211e-01          -0.005           0.007           1.000       5.287e-01         -0.3630
 344       6.722e+00      -7.948e+00       5.134e-01           0.036           0.025           0.999       5.450e-01         -0.3511
 345       7.208e+00      -7.948e+00       4.837e-01           0.087           0.047           0.995       5.312e-01         -0.3073
 346       7.666e+00      -7.948e+00       4.346e-01           0.128           0.063           0.990       4.870e-01         -0.2223
 347       8.070e+00      -7.949e+00       3.772e-01           0.155           0.072           0.985       4.136e-01         -0.1342
 348       8.395e+00      -7.949e+00       3.229e-01           0.176           0.079           0.981       3.152e-01         -0.0631
 349       8.622e+00      -7.949e+00       2.800e-01           0.197           0.085           0.977       1.977e-01         -0.0291
 350       8.739e+00      -7.949e+00       2.498e-01           0.386           0.139           0.912       7.195e-02          0.0907
Strip 14
 351       8.409e+00      -6.821e+00       2.029e-01           0.026          -0.022          -0.999       7.434e-02          0.1416
 352       8.282e+00      -6.821e+00       2.115e-01          -0.099          -0.059          -0.993       2.200e-01          0.2559
 353       8.036e+00      -6.821e+00       2.155e-01           0.036          -0.017          -0.999       3.504e-01          0.3308
 354       7.684e+00      -6.821e+00       1.779e-01           0.159           0.023          -0.987       4.675e-01          0.2641
 355       7.248e+00      -6.821e+00       9.483e-02           0.210           0.042          -0.977       5.590e-01          0.0990
 356       6.752e+00      -6.822e+00      -3.699e-03           0.181           0.030          -0.983       6.091e-01         -0.1201
 357       6.226e+00      -6.822e+00      -7.559e-02           0.091          -0.008          -0.996       6.192e-01         -0.2778
 358       5.700e+00      -6.822e+00      -1.034e-01           0.014          -0.044          -0.999       5.992e-01         -0.3132
 359       5.204e+00      -6.822e+00      -9.747e-02          -0.040          -0.070          -0.997       5.476e-01         -0.3073
 360       4.768e+00      -6.822e+00      -6.849e-02          -0.096          -0.099          -0.990       4.658e-01         -0.3070
 361       4.416e+00      -6.822e+00      -2.095e-02          -0.180          -0.145          -0.973       3.597e-01         -0.3266
 362       4.170e+00      -6.822e+00       4.751e-02          -0.380          -0.255          -0.889       2.454e-01         -0.2394
 363       4.043e+00      -6.821e+00       1.451e-01          -0.772          -0.467          -0.431       1.713e-01          0.5474
 364       4.043e+00      -6.820e+00       2.597e-01          -0.780          -0.445           0.440       1.696e-01          0.4052
 365       4.170e+00      -6.820e+00       3.574e-01          -0.383          -0.204           0.901       2.429e-01         -0.4979
 366       4.416e+00      -6.819e+00       4.249e-01          -0.176          -0.084           0.981       3.571e-01         -0.4922
 367       4.768e+00      -6.819e+00       4.709e-01          -0.093          -0.039           0.995       4.637e-01         -0.4113
 368       5.204e+00      -6.819e+00       4.997e-01          -0.042          -0.012           0.999       5.462e-01         -0.3764
 369       5.700e+00      -6.819e+00       5.110e-01          -0.005           0.007           1.000       5.983e-01         -0.3597
 370       6.226e+00      -6.819e+00       5.027e-01           0.036           0.025           0.999       6.167e-01         -0.3486
 371       6.752e+00      -6.819e+00       4.705e-01           0.087           0.047           0.995       6.011e-01         -0.3055
 372       7.248e+00      -6.820e+00       4.174e-01           0.128           0.063           0.990       5.511e-01         -0.2212
 373       7.684e+00      -6.820e+00       3.553e-01           0.155           0.072           0.985       4.681e-01         -0.1335
 374       8.036e+00      -6.820e+00       2.965e-01           0.176           0.079           0.981       3.567e-01         -0.0629
 375       8.282e+00      -6.820e+00       2.501e-01           0.197           0.085           0.977       2.237e-01         -0.0291
 376       8.409e+00      -6.821e+00       2.174e-01           0.386           0.139           0.912       8.143e-02          0.0904
Strip 15
 377       8.065e+00      -5.645e+00       1.681e-01           0.026          -0.022          -0.999       8.317e-02          0.1410
 378       7.928e+00      -5.645e+00       1.773e-01          -0.099          -0.059          -0.993       2.461e-01          0.2554
 379       7.662e+00      -5.645e+00       1.816e-01           0.036          -0.017          -0.999       3.920e-01          0.3303
 380       7.283e+00      -5.645e+00       1.411e-01           0.159           0.023          -0.987       5.231e-01          0.2635
 381       6.812e+00      -5.646e+00       5.145e-02           0.210           0.042          -0.977       6.254e-01          0.0980
 382       6.278e+00      -5.646e+00      -5.487e-02           0.181           0.030          -0.983       6.814e-01         -0.1217
 383       5.710e+00      -5.646e+00      -1.324e-01           0.091          -0.008          -0.996       6.927e-01         -0.2800
 384       5.142e+00      -5.647e+00      -1.625e-01           0.014          -0.044          -0.999       6.704e-01         -0.3157
 385       4.607e+00      -5.647e+00      -1.560e-01          -0.040          -0.070          -0.997       6.127e-01         -0.3103
 386       4.136e+00      -5.646e+00      -1.248e-01          -0.096          -0.099          -0.990       5.211e-01         -0.3107
 387       3.757e+00      -5.646e+00      -7.348e-02          -0.180          -0.145          -0.973       4.025e-01         -0.3323
 388       3.491e+00      -5.646e+00       3.894e-04          -0.380          -0.255          -0.889       2.747e-01         -0.2497
 389       3.354e+00      -5.645e+00       1.057e-01          -0.772          -0.467          -0.432       1.917e-01          0.5401
 390       3.354e+00      -5.645e+00       2.294e-01          -0.780          -0.445           0.440       1.897e-01          0.4152
 391       3.491e+00      -5.645e+00       3.347e-01          -0.384          -0.204           0.901       2.717e-01         -0.4817
 392       3.757e+00      -5.644e+00       4.076e-01          -0.176          -0.084           0.981       3.995e-01         -0.4816
 393       4.136e+00      -5.644e+00       4.572e-01          -0.093          -0.039           0.995       5.188e-01         -0.4041
 394       4.607e+00      -5.644e+00       4.883e-01          -0.042          -0.012           0.999       6.111e-01         -0.3713
 395       5.142e+00      -5.644e+00       5.005e-01          -0.005           0.007           1.000       6.694e-01         -0.3558
 396       5.710e+00      -5.644e+00       4.915e-01           0.036           0.025           0.999       6.900e-01         -0.3457
 397       6.278e+00      -5.644e+00       4.568e-01           0.087           0.047           0.995       6.726e-01         -0.3036
 398       6.812e+00      -5.644e+00       3.994e-01           0.128           0.063           0.990       6.166e-01         -0.2201
 399       7.283e+00      -5.645e+00       3.324e-01           0.155           0.072           0.985       5.237e-01         -0.1330
 400       7.662e+00      -5.645e+00       2.691e-01           0.176           0.079           0.981       3.991e-01         -0.0627
 401       7.928e+00      -5.645e+00       2.190e-01           0.197           0.085           0.977       2.503e-01         -0.0293
 402       8.065e+00      -5.645e+00       1.837e-01           0.386           0.139           0.912       9.111e-02          0.0899
Strip 16
 403       7.710e+00      -4.431e+00       1.321e-01           0.026          -0.022          -0.999       9.203e-02          0.1400
 404       7.563e+00      -4.431e+00       1.420e-01          -0.099          -0.059          -0.993       2.723e-01          0.2545
 405       7.277e+00      -4.431e+00       1.467e-01           0.036          -0.017          -0.999       4.338e-01          0.3294
 406       6.869e+00      -4.431e+00       1.031e-01           0.159           0.023          -0.987       5.788e-01          0.2624
 407       6.362e+00      -4.432e+00       6.638e-03           0.210           0.042          -0.977       6.919e-01          0.0963
 408       5.787e+00      -4.432e+00      -1.077e-01           0.181           0.030          -0.983       7.539e-01         -0.1241
 409       5.176e+00      -4.432e+00      -1.911e-01           0.091          -0.008          -0.996       7.665e-01         -0.2828
 410       4.566e+00      -4.432e+00      -2.235e-01           0.014          -0.044          -0.999       7.418e-01         -0.3185
 411       3.991e+00      -4.432e+00      -2.165e-01          -0.040          -0.070          -0.997       6.780e-01         -0.3131
 412       3.484e+00      -4.432e+00      -1.829e-01          -0.096          -0.099          -0.990       5.767e-01         -0.3138
 413       3.076e+00      -4.432e+00      -1.277e-01          -0.180          -0.145          -0.973       4.455e-01         -0.3369
 414       2.790e+00      -4.432e+00      -4.828e-02          -0.379          -0.255          -0.889       3.040e-01         -0.2592
 415       2.643e+00      -4.431e+00       6.504e-02          -0.772          -0.467          -0.432       2.122e-01          0.5326
 416       2.643e+00      -4.431e+00       1.980e-01          -0.780          -0.446           0.440       2.099e-01          0.4261
 417       2.790e+00      -4.431e+00       3.113e-01          -0.384          -0.204           0.901       3.006e-01         -0.4628
 418       3.076e+00      -4.430e+00       3.897e-01          -0.176          -0.084           0.981       4.420e-01         -0.4685
 419       3.484e+00      -4.430e+00       4.431e-01          -0.093          -0.039           0.995       5.740e-01         -0.3952
 420       3.991e+00      -4.430e+00       4.766e-01          -0.042          -0.012           0.999       6.762e-01         -0.3649
 421       4.566e+00      -4.430e+00       4.896e-01          -0.005           0.007           1.000       7.407e-01         -0.3513
 422       5.176e+00      -4.430e+00       4.799e-01           0.036           0.025           0.999       7.636e-01         -0.3427
 423       5.787e+00      -4.430e+00       4.426e-01           0.087           0.047           0.995       7.442e-01         -0.3018
 424       6.362e+00      -4.430e+00       3.809e-01           0.128           0.063           0.990       6.824e-01         -0.2193
 425       6.869e+00      -4.431e+00       3.089e-01           0.155           0.072           0.985       5.795e-01         -0.1329
 426       7.277e+00      -4.431e+00       2.407e-01           0.176           0.079           0.981       4.417e-01         -0.0630
 427       7.563e+00      -4.431e+00       1.869e-01           0.197           0.085           0.977       2.770e-01         -0.0300
 428       7.710e+00      -4.431e+00       1.489e-01           0.386           0.139           0.912       1.008e-01          0.0888
Strip 17
 429       7.346e+00      -3.187e+00       9.521e-02           0.026          -0.022          -0.999       1.007e-01          0.1383
 430       7.188e+00      -3.187e+00       1.059e-01          -0.099          -0.059          -0.993       2.981e-01          0.2529
 431       6.881e+00      -3.187e+00       1.108e-01           0.036          -0.017          -0.999       4.749e-01          0.3278
 432       6.444e+00      -3.187e+00       6.407e-02           0.159           0.023          -0.987       6.335e-01          0.2603
 433       5.901e+00      -3.187e+00      -3.929e-02           0.210           0.042          -0.977       7.574e-01          0.0932
 434       5.285e+00      -3.187e+00      -1.619e-01           0.181           0.030          -0.983       8.252e-01         -0.1282
 435       4.630e+00      -3.188e+00      -2.513e-01           0.091          -0.008          -0.996       8.390e-01         -0.2868
 436       3.975e+00      -3.188e+00      -2.860e-01           0.014          -0.044          -0.999       8.121e-01         -0.3214
 437       3.359e+00      -3.188e+00      -2.785e-01          -0.040          -0.070          -0.997       7.422e-01         -0.3145
 438       2.816e+00      -3.188e+00      -2.425e-01          -0.096          -0.099          -0.990       6.314e-01         -0.3144
 439       2.378e+00      -3.188e+00      -1.833e-01          -0.180          -0.145          -0.973       4.877e-01         -0.3380
 440       2.072e+00      -3.187e+00      -9.816e-02          -0.379          -0.255          -0.890       3.329e-01         -0.2649
 441       1.914e+00      -3.187e+00       2.332e-02          -0.772          -0.467          -0.433       2.323e-01          0.5262
 442       1.914e+00      -3.187e+00       1.659e-01          -0.780          -0.446           0.439       2.297e-01          0.4390
 443       2.072e+00      -3.187e+00       2.873e-01          -0.384          -0.204           0.901       3.290e-01         -0.4382
 444       2.378e+00      -3.186e+00       3.714e-01          -0.176          -0.084           0.981       4.838e-01         -0.4505
 445       2.816e+00      -3.186e+00       4.286e-01          -0.093          -0.039           0.995       6.284e-01         -0.3826
 446       3.359e+00      -3.186e+00       4.645e-01          -0.042          -0.012           0.999       7.402e-01         -0.3560
 447       3.975e+00      -3.186e+00       4.785e-01          -0.005           0.007           1.000       8.109e-01         -0.3456
 448       4.630e+00      -3.186e+00       4.681e-01           0.036           0.025           0.999       8.359e-01         -0.3396
 449       5.285e+00      -3.186e+00       4.281e-01           0.087           0.047           0.995       8.148e-01         -0.3009
 450       5.901e+00      -3.186e+00       3.620e-01           0.128           0.063           0.990       7.471e-01         -0.2198
 451       6.444e+00      -3.187e+00       2.847e-01           0.155           0.072           0.985       6.345e-01         -0.1340
 452       6.881e+00      -3.187e+00       2.116e-01           0.176           0.079           0.981       4.835e-01         -0.0644
 453       7.188e+00      -3.187e+00       1.540e-01           0.197           0.085           0.977       3.032e-01         -0.0317
 454       7.346e+00      -3.187e+00       1.132e-01           0.386           0.139           0.912       1.104e-01          0.0868
Strip 18
 455       6.975e+00      -1.921e+00       5.767e-02           0.026          -0.022          -0.999       1.091e-01          0.1350
 456       6.807e+00      -1.921e+00       6.905e-02          -0.099          -0.059          -0.993       3.230e-01          0.2498
 457       6.479e+00      -1.921e+00       7.436e-02           0.036          -0.017          -0.999       5.144e-01          0.3244
 458       6.012e+00      -1.921e+00       2.441e-02           0.159           0.023          -0.987       6.862e-01          0.2553
 459       5.432e+00      -1.921e+00      -8.602e-02           0.210           0.042          -0.977       8.204e-01          0.0857
 460       4.773e+00      -1.921e+00      -2.170e-01           0.181           0.030          -0.983       8.938e-01         -0.1373
 461       4.074e+00      -1.921e+00      -3.125e-01           0.091          -0.008          -0.996       9.088e-01         -0.2938
 462       3.374e+00      -1.921e+00      -3.496e-01           0.014          -0.044          -0.999       8.796e-01         -0.3231
 463       2.716e+00      -1.921e+00      -3.416e-01          -0.040          -0.070          -0.997       8.040e-01         -0.3106
 464       2.136e+00      -1.921e+00      -3.031e-01          -0.096          -0.099          -0.990       6.839e-01         -0.3059
 465       1.668e+00      -1.921e+00      -2.399e-01          -0.180          -0.145          -0.973       5.283e-01         -0.3273
 466       1.341e+00      -1.921e+00      -1.489e-01          -0.379          -0.255          -0.890       3.606e-01         -0.2582
 467       1.172e+00      -1.921e+00      -1.913e-02          -0.771          -0.466          -0.433       2.517e-01          0.5266
 468       1.172e+00      -1.921e+00       1.332e-01          -0.780          -0.446           0.439       2.488e-01          0.4592
 469       1.341e+00      -1.921e+00       2.629e-01          -0.384          -0.204           0.901       3.563e-01         -0.3997
 470       1.668e+00      -1.921e+00       3.528e-01          -0.176          -0.084           0.981       5.240e-01         -0.4201
 471       2.136e+00      -1.921e+00       4.139e-01          -0.093          -0.039           0.995       6.806e-01         -0.3606
 472       2.716e+00      -1.920e+00       4.522e-01          -0.042          -0.012           0.999       8.018e-01         -0.3409
 473       3.374e+00      -1.920e+00       4.672e-01          -0.005           0.007           1.000       8.783e-01         -0.3370
 474       4.074e+00      -1.920e+00       4.561e-01           0.036           0.025           0.999       9.054e-01         -0.3369
 475       4.773e+00      -1.921e+00       4.133e-01           0.087           0.047           0.995       8.826e-01         -0.3026
 476       5.432e+00      -1.921e+00       3.427e-01           0.128           0.063           0.990       8.092e-01         -0.2240
 477       6.012e+00      -1.921e+00       2.602e-01           0.155           0.072           0.985       6.873e-01         -0.1387
 478       6.479e+00      -1.921e+00       1.821e-01           0.176           0.079           0.981       5.238e-01         -0.0686
 479       6.807e+00      -1.921e+00       1.204e-01           0.197           0.085           0.977       3.285e-01         -0.0357
 480       6.975e+00      -1.921e+00       7.690e-02           0.386           0.139           0.912       1.196e-01          0.0828
Strip 19
 481       6.601e+00      -6.418e-01       1.975e-02           0.026          -0.022          -0.999       1.170e-01          0.1300
 482       6.421e+00      -6.418e-01       3.187e-02          -0.099          -0.059          -0.993       3.462e-01          0.2450
 483       6.073e+00      -6.418e-01       3.751e-02           0.036          -0.017          -0.999       5.514e-01          0.3170
 484       5.575e+00      -6.418e-01      -1.566e-02           0.159           0.023          -0.987       7.356e-01          0.2392
 485       4.958e+00      -6.418e-01      -1.332e-01           0.210           0.042          -0.977       8.794e-01          0.0588
 486       4.257e+00      -6.419e-01      -2.727e-01           0.181           0.030          -0.983       9.581e-01         -0.1653
 487       3.512e+00      -6.419e-01      -3.744e-01           0.091          -0.008          -0.996       9.742e-01         -0.3071
 488       2.767e+00      -6.419e-01      -4.138e-01           0.014          -0.044          -0.999       9.429e-01         -0.3157
 489       2.066e+00      -6.419e-01      -4.054e-01          -0.040          -0.070          -0.997       8.618e-01         -0.2844
 490       1.448e+00      -6.419e-01      -3.644e-01          -0.096          -0.099          -0.990       7.332e-01         -0.2626
 491       9.511e-01      -6.419e-01      -2.971e-01          -0.180          -0.145          -0.973       5.664e-01         -0.2666
 492       6.024e-01      -6.419e-01      -2.002e-01          -0.379          -0.255          -0.890       3.866e-01         -0.1992
 493       4.229e-01      -6.418e-01      -6.202e-02          -0.771          -0.466          -0.433       2.698e-01          0.5364
 494       4.229e-01      -6.417e-01       1.001e-01          -0.780          -0.446           0.439       2.667e-01          0.4961
 495       6.024e-01      -6.417e-01       2.383e-01          -0.384          -0.204           0.901       3.819e-01         -0.2996
 496       9.511e-01      -6.417e-01       3.339e-01          -0.176          -0.084           0.981       5.617e-01         -0.3385
 497       1.448e+00      -6.416e-01       3.990e-01          -0.093          -0.039           0.995       7.296e-01         -0.3067
 498       2.066e+00      -6.416e-01       4.398e-01          -0.042          -0.012           0.999       8.595e-01         -0.3077
 499       2.767e+00      -6.416e-01       4.557e-01          -0.005           0.007           1.000       9.415e-01         -0.3199
 500       3.512e+00      -6.416e-01       4.439e-01           0.036           0.025           0.999       9.706e-01         -0.3352
 501       4.257e+00      -6.416e-01       3.984e-01           0.087           0.047           0.995       9.461e-01         -0.3147
 502       4.958e+00      -6.417e-01       3.232e-01           0.128           0.063           0.990       8.675e-01         -0.2433
 503       5.575e+00      -6.417e-01       2.353e-01           0.155           0.072           0.985       7.368e-01         -0.1571
 504       6.073e+00      -6.417e-01       1.522e-01           0.176           0.079           0.981       5.615e-01         -0.0825
 505       6.421e+00      -6.417e-01       8.657e-02           0.197           0.085           0.977       3.521e-01         -0.0457
 506       6.601e+00      -6.418e-01       4.022e-02           0.386           0.139           0.912       1.282e-01          0.0748
Strip 20
 507       6.601e+00       6.418e-01       1.975e-02           0.026           0.022          -0.999       1.170e-01          0.1300
 508       6.421e+00       6.418e-01       3.187e-02          -0.099           0.059          -0.993       3.462e-01          0.2450
 509       6.073e+00       6.418e-01       3.751e-02           0.036           0.017          -0.999       5.514e-01          0.3170
 510       5.575e+00       6.418e-01      -1.566e-02           0.159          -0.023          -0.987       7.356e-01          0.2392
 511       4.958e+00       6.418e-01      -1.332e-01           0.210          -0.042          -0.977       8.794e-01          0.0588
 512       4.257e+00       6.419e-01      -2.727e-01           0.181          -0.030          -0.983       9.581e-01         -0.1653
 513       3.512e+00       6.419e-01      -3.744e-01           0.091           0.008          -0.996       9.742e-01         -0.3071
 514       2.767e+00       6.419e-01      -4.138e-01           0.014           0.044          -0.999       9.429e-01         -0.3157
 515       2.066e+00       6.419e-01      -4.054e-01          -0.040           0.070          -0.997       8.618e-01         -0.2844
 516       1.448e+00       6.419e-01      -3.644e-01          -0.096           0.099          -0.990       7.332e-01         -0.2626
 517       9.511e-01       6.419e-01      -2.971e-01          -0.180           0.145          -0.973       5.664e-01         -0.2666
 518       6.024e-01       6.419e-01      -2.002e-01          -0.379           0.255          -0.890       3.866e-01         -0.1992
 519       4.229e-01       6.418e-01      -6.202e-02          -0.771           0.466          -0.433       2.698e-01          0.5364
 520       4.229e-01       6.417e-01       1.001e-01          -0.780           0.446           0.439       2.667e-01          0.4961
 521       6.024e-01       6.417e-01       2.383e-01          -0.384           0.204           0.901       3.819e-01         -0.2996
 522       9.511e-01       6.417e-01       3.339e-01          -0.176           0.084           0.981       5.617e-01         -0.3385
 523       1.448e+00       6.416e-01       3.990e-01          -0.093           0.039           0.995       7.296e-01         -0.3067
 524       2.066e+00       6.416e-01       4.398e-01          -0.042           0.012           0.999       8.595e-01         -0.3077
 525       2.767e+00       6.416e-01       4.557e-01          -0.005          -0.007           1.000       9.415e-01         -0.3199
 526       3.512e+00       6.416e-01       4.439e-01           0.036          -0.025           0.999       9.706e-01         -0.3352
 527       4.257e+00       6.416e-01       3.984e-01           0.087          -0.047           0.995       9.461e-01         -0.3147
 528       4.958e+00       6.417e-01       3.232e-01           0.128          -0.063           0.990       8.675e-01         -0.2433
 529       5.575e+00       6.417e-01       2.353e-01           0.155          -0.072           0.985       7.368e-01         -0.1571
 530       6.073e+00       6.417e-01       1.522e-01           0.176          -0.079           0.981       5.615e-01         -0.0825
 531       6.421e+00       6.417e-01       8.657e-02           0.197          -0.085           0.977       3.521e-01         -0.0457
 532       6.601e+00       6.418e-01       4.022e-02           0.386          -0.139           0.912       1.282e-01          0.0748
Strip 21
 533       6.975e+00       1.921e+00       5.767e-02           0.026           0.022          -0.999       1.091e-01          0.1350
 534       6.807e+00       1.921e+00       6.905e-02          -0.099           0.059          -0.993       3.230e-01          0.2498
 535       6.479e+00       1.921e+00       7.436e-02           0.036           0.017          -0.999       5.144e-01          0.3244
 536       6.012e+00       1.921e+00       2.441e-02           0.159          -0.023          -0.987       6.862e-01          0.2553
 537       5.432e+00       1.921e+00      -8.602e-02           0.210          -0.042          -0.977       8.204e-01          0.0857
 538       4.773e+00       1.921e+00      -2.170e-01           0.181          -0.030          -0.983       8.938e-01         -0.1373
 539       4.074e+00       1.921e+00      -3.125e-01           0.091           0.008          -0.996       9.088e-01         -0.2938
 540       3.374e+00       1.921e+00      -3.496e-01           0.014           0.044          -0.999       8.796e-01         -0.3231
 541       2.716e+00       1.921e+00      -3.416e-01          -0.040           0.070          -0.997       8.040e-01         -0.3106
 542       2.136e+00       1.921e+00      -3.031e-01          -0.096           0.099          -0.990       6.839e-01         -0.3059
 543       1.668e+00       1.921e+00      -2.399e-01          -0.180           0.145          -0.973       5.283e-01         -0.3273
 544       1.341e+00       1.921e+00      -1.489e-01          -0.379           0.255          -0.890       3.606e-01         -0.2582
 545       1.172e+00       1.921e+00      -1.913e-02          -0.771           0.466          -0.433       2.517e-01          0.5266
 546       1.172e+00       1.921e+00       1.332e-01          -0.780           0.446           0.439       2.488e-01          0.4592
 547       1.341e+00       1.921e+00       2.629e-01          -0.384           0.204           0.901       3.563e-01         -0.3997
 548       1.668e+00       1.921e+00       3.528e-01          -0.176           0.084           0.981       5.240e-01         -0.4201
 549       2.136e+00       1.921e+00       4.139e-01          -0.093           0.039           0.995       6.806e-01         -0.3606
 550       2.716e+00       1.920e+00       4.522e-01          -0.042           0.012           0.999       8.018e-01         -0.3409
 551       3.374e+00       1.920e+00       4.672e-01          -0.005          -0.007           1.000       8.783e-01         -0.3370
 552       4.074e+00       1.920e+00       4.561e-01           0.036          -0.025           0.999       9.054e-01         -0.3369
 553       4.773e+00       1.921e+00       4.133e-01           0.087          -0.047           0.995       8.826e-01         -0.3026
 554       5.432e+00       1.921e+00       3.427e-01           0.128          -0.063           0.990       8.092e-01         -0.2240
 555       6.012e+00       1.921e+00       2.602e-01           0.155          -0.072           0.985       6.873e-01         -0.1387
 556       6.479e+00       1.921e+00       1.821e-01           0.176          -0.079           0.981       5.238e-01         -0.0686
 557       6.807e+00       1.921e+00       1.204e-01           0.197          -0.085           0.977       3.285e-01         -0.0357
 558       6.975e+00       1.921e+00       7.690e-02           0.386          -0.139           0.912       1.196e-01          0.0828
Strip 22
 559       7.346e+00       3.187e+00       9.521e-02           0.026           0.022          -0.999       1.007e-01          0.1383
 560       7.188e+00       3.187e+00       1.059e-01          -0.099           0.059          -0.993       2.981e-01          0.2529
 561       6.881e+00       3.187e+00       1.108e-01           0.036           0.017          -0.999       4.749e-01          0.3278
 562       6.444e+00       3.187e+00       6.407e-02           0.159          -0.023          -0.987       6.335e-01          0.2603
 563       5.901e+00       3.187e+00      -3.929e-02           0.210          -0.042          -0.977       7.574e-01          0.0932
 564       5.285e+00       3.187e+00      -1.619e-01           0.181          -0.030          -0.983       8.252e-01         -0.1282
 565       4.630e+00       3.188e+00      -2.513e-01           0.091           0.008          -0.996       8.390e-01         -0.2868
 566       3.975e+00       3.188e+00      -2.860e-01           0.014           0.044          -0.999       8.121e-01         -0.3214
 567       3.359e+00       3.188e+00      -2.785e-01          -0.040           0.070          -0.997       7.422e-01         -0.3145
 568       2.816e+00       3.188e+00      -2.425e-01          -0.096           0.099          -0.990       6.314e-01         -0.3144
[...]
 852       9.084e+00       1.396e+01       2.548e-01           0.014           0.044          -0.999       1.527e-01         -0.3036
 853       8.826e+00       1.396e+01       2.579e-01          -0.040           0.070          -0.997       1.394e-01         -0.2956
 854       8.599e+00       1.395e+01       2.730e-01          -0.096           0.099          -0.990       1.185e-01         -0.2905
 855       8.416e+00       1.395e+01       2.977e-01          -0.181           0.145          -0.973       9.149e-02         -0.3001
 856       8.287e+00       1.395e+01       3.334e-01          -0.381           0.255          -0.889       6.233e-02         -0.1931
 857       8.221e+00       1.395e+01       3.842e-01          -0.775           0.468          -0.425       4.350e-02          0.5780
 858       8.221e+00       1.395e+01       4.439e-01          -0.777           0.444           0.446       4.334e-02          0.3558
 859       8.287e+00       1.395e+01       4.948e-01          -0.382           0.203           0.901       6.207e-02         -0.5604
 860       8.416e+00       1.395e+01       5.300e-01          -0.176           0.084           0.981       9.110e-02         -0.5286
 861       8.599e+00       1.395e+01       5.539e-01          -0.093           0.039           0.995       1.182e-01         -0.4329
 862       8.826e+00       1.395e+01       5.689e-01          -0.042           0.012           0.999       1.392e-01         -0.3891
 863       9.084e+00       1.395e+01       5.748e-01          -0.005          -0.007           1.000       1.524e-01         -0.3656
 864       9.359e+00       1.395e+01       5.704e-01           0.036          -0.025           0.999       1.571e-01         -0.3492
 865       9.633e+00       1.395e+01       5.537e-01           0.087          -0.047           0.995       1.530e-01         -0.3025
 866       9.891e+00       1.395e+01       5.260e-01           0.128          -0.063           0.990       1.403e-01         -0.2160
 867       1.012e+01       1.395e+01       4.937e-01           0.155          -0.072           0.985       1.191e-01         -0.1276
 868       1.030e+01       1.395e+01       4.631e-01           0.176          -0.079           0.981       9.078e-02         -0.0572
 869       1.043e+01       1.395e+01       4.389e-01           0.198          -0.085           0.977       5.693e-02         -0.0238
 870       1.050e+01       1.395e+01       4.219e-01           0.387          -0.139           0.911       2.071e-02          0.0967
Strip 34
 871       1.065e+01       1.447e+01       4.296e-01           0.026           0.022          -0.999       1.463e-02          0.1466
 872       1.059e+01       1.447e+01       4.338e-01          -0.099           0.059          -0.993       4.327e-02          0.2594
 873       1.047e+01       1.447e+01       4.357e-01           0.036           0.017          -0.999       6.898e-02          0.3327
 874       1.029e+01       1.447e+01       4.175e-01           0.159          -0.023          -0.987       9.211e-02          0.2669
 875       1.008e+01       1.447e+01       3.771e-01           0.210          -0.042          -0.977       1.102e-01          0.1045
 876       9.841e+00       1.447e+01       3.292e-01           0.180          -0.030          -0.983       1.200e-01         -0.1110
 877       9.585e+00       1.447e+01       2.942e-01           0.090           0.008          -0.996       1.219e-01         -0.2667
 878       9.329e+00       1.447e+01       2.807e-01           0.014           0.044          -0.999       1.179e-01         -0.3024
 879       9.088e+00       1.447e+01       2.836e-01          -0.040           0.070          -0.997       1.077e-01         -0.2965
 880       8.876e+00       1.447e+01       2.977e-01          -0.096           0.099          -0.990       9.159e-02         -0.2929
 881       8.705e+00       1.447e+01       3.208e-01          -0.181           0.145          -0.973       7.067e-02         -0.3035
 882       8.585e+00       1.447e+01       3.541e-01          -0.381           0.256          -0.889       4.814e-02         -0.1984
 883       8.523e+00       1.447e+01       4.015e-01          -0.775           0.468          -0.425       3.359e-02          0.5737
 884       8.523e+00       1.447e+01       4.572e-01          -0.777           0.444           0.447       3.350e-02          0.3558
 885       8.585e+00       1.447e+01       5.047e-01          -0.382           0.203           0.902       4.798e-02         -0.5553
 886       8.705e+00       1.446e+01       5.376e-01          -0.176           0.084           0.981       7.041e-02         -0.5233
 887       8.876e+00       1.446e+01       5.599e-01          -0.093           0.039           0.995       9.135e-02         -0.4272
 888       9.088e+00       1.446e+01       5.739e-01          -0.042           0.012           0.999       1.075e-01         -0.3816
 889       9.329e+00       1.446e+01       5.794e-01          -0.005          -0.007           1.000       1.178e-01         -0.3556
 890       9.585e+00       1.446e+01       5.753e-01           0.036          -0.025           0.999       1.213e-01         -0.3373
 891       9.841e+00       1.446e+01       5.597e-01           0.087          -0.047           0.995       1.182e-01         -0.2901
 892       1.008e+01       1.447e+01       5.339e-01           0.128          -0.063           0.990       1.084e-01         -0.2051
 893       1.029e+01       1.447e+01       5.037e-01           0.155          -0.072           0.985       9.203e-02         -0.1191
 894       1.047e+01       1.447e+01       4.751e-01           0.176          -0.079           0.981       7.013e-02         -0.0511
 895       1.059e+01       1.447e+01       4.526e-01           0.198          -0.085           0.977       4.398e-02         -0.0198
 896       1.065e+01       1.447e+01       4.367e-01           0.387          -0.139           0.911       1.600e-02          0.1000
Strip 35
 897       1.077e+01       1.488e+01       4.420e-01           0.026           0.022          -0.999       1.083e-02          0.1444
 898       1.071e+01       1.488e+01       4.459e-01          -0.099           0.059          -0.993       3.201e-02          0.2569
 899       1.060e+01       1.488e+01       4.477e-01           0.036           0.017          -0.999       5.103e-02          0.3308
 900       1.044e+01       1.488e+01       4.305e-01           0.159          -0.023          -0.987       6.815e-02          0.2670
 901       1.024e+01       1.489e+01       3.925e-01           0.210          -0.042          -0.977       8.152e-02          0.1082
 902       1.001e+01       1.489e+01       3.473e-01           0.180          -0.030          -0.983       8.881e-02         -0.1031
 903       9.768e+00       1.489e+01       3.144e-01           0.090           0.008          -0.996       9.022e-02         -0.2568
 904       9.527e+00       1.489e+01       3.016e-01           0.014           0.044          -0.999       8.726e-02         -0.2949
 905       9.300e+00       1.489e+01       3.044e-01          -0.040           0.070          -0.997       7.970e-02         -0.2945
 906       9.100e+00       1.489e+01       3.176e-01          -0.096           0.099          -0.990       6.775e-02         -0.2963
 907       8.938e+00       1.489e+01       3.394e-01          -0.181           0.145          -0.973       5.227e-02         -0.3106
 908       8.825e+00       1.489e+01       3.708e-01          -0.381           0.256          -0.888       3.560e-02         -0.2103
 909       8.767e+00       1.488e+01       4.155e-01          -0.775           0.468          -0.424       2.484e-02          0.5629
 910       8.767e+00       1.488e+01       4.680e-01          -0.776           0.443           0.448       2.480e-02          0.3551
 911       8.825e+00       1.488e+01       5.127e-01          -0.382           0.203           0.902       3.551e-02         -0.5470
 912       8.938e+00       1.488e+01       5.437e-01          -0.176           0.084           0.981       5.210e-02         -0.5144
 913       9.100e+00       1.488e+01       5.648e-01          -0.093           0.039           0.995       6.759e-02         -0.4162
 914       9.300e+00       1.488e+01       5.780e-01          -0.042           0.012           0.999       7.956e-02         -0.3655
 915       9.527e+00       1.488e+01       5.831e-01          -0.005          -0.007           1.000       8.712e-02         -0.3343
 916       9.768e+00       1.488e+01       5.793e-01           0.036          -0.025           0.999       8.977e-02         -0.3132
 917       1.001e+01       1.488e+01       5.646e-01           0.087          -0.047           0.995       8.746e-02         -0.2671
 918       1.024e+01       1.488e+01       5.402e-01           0.128          -0.063           0.990       8.017e-02         -0.1864
 919       1.044e+01       1.488e+01       5.118e-01           0.156          -0.072           0.985       6.808e-02         -0.1061
 920       1.060e+01       1.488e+01       4.849e-01           0.176          -0.079           0.981       5.188e-02         -0.0436
 921       1.071e+01       1.488e+01       4.636e-01           0.198          -0.085           0.977       3.253e-02         -0.0172
 922       1.077e+01       1.488e+01       4.486e-01           0.387          -0.139           0.911       1.183e-02          0.1010
Strip 36
 923       1.086e+01       1.520e+01       4.513e-01           0.026           0.022          -0.999       7.426e-03          0.1291
 924       1.081e+01       1.520e+01       4.551e-01          -0.099           0.059          -0.993       2.196e-02          0.2415
 925       1.070e+01       1.520e+01       4.568e-01           0.036           0.017          -0.999       3.501e-02          0.3169
 926       1.054e+01       1.520e+01       4.404e-01           0.159          -0.023          -0.987       4.675e-02          0.2586
 927       1.035e+01       1.520e+01       4.041e-01           0.210          -0.042          -0.977       5.593e-02          0.1096
 928       1.014e+01       1.520e+01       3.610e-01           0.180          -0.030          -0.983       6.093e-02         -0.0892
 929       9.906e+00       1.520e+01       3.296e-01           0.090           0.008          -0.996       6.190e-02         -0.2331
 930       9.676e+00       1.520e+01       3.174e-01           0.014           0.044          -0.999       5.986e-02         -0.2702
 931       9.460e+00       1.520e+01       3.201e-01          -0.040           0.070          -0.997       5.467e-02         -0.2780
 932       9.269e+00       1.520e+01       3.327e-01          -0.097           0.099          -0.990       4.647e-02         -0.2945
 933       9.115e+00       1.520e+01       3.535e-01          -0.181           0.145          -0.973       3.585e-02         -0.3226
 934       9.007e+00       1.520e+01       3.834e-01          -0.381           0.256          -0.888       2.441e-02         -0.2350
 935       8.952e+00       1.520e+01       4.261e-01          -0.776           0.469          -0.423       1.703e-02          0.5345
 936       8.952e+00       1.520e+01       4.761e-01          -0.776           0.443           0.449       1.702e-02          0.3439
 937       9.007e+00       1.520e+01       5.188e-01          -0.382           0.203           0.902       2.437e-02         -0.5393
 938       9.115e+00       1.520e+01       5.483e-01          -0.175           0.084           0.981       3.574e-02         -0.5004
 939       9.269e+00       1.520e+01       5.684e-01          -0.093           0.039           0.995       4.637e-02         -0.3925
 940       9.460e+00       1.520e+01       5.810e-01          -0.042           0.012           0.999       5.458e-02         -0.3304
 941       9.676e+00       1.520e+01       5.859e-01          -0.005          -0.007           1.000       5.976e-02         -0.2937
 942       9.906e+00       1.520e+01       5.823e-01           0.036          -0.025           0.999       6.158e-02         -0.2728
 943       1.014e+01       1.520e+01       5.683e-01           0.087          -0.047           0.995       5.999e-02         -0.2318
 944       1.035e+01       1.520e+01       5.450e-01           0.128          -0.063           0.990       5.499e-02         -0.1604
 945       1.054e+01       1.520e+01       5.179e-01           0.156          -0.072           0.985       4.670e-02         -0.0913
 946       1.070e+01       1.520e+01       4.922e-01           0.176          -0.079           0.981       3.559e-02         -0.0397
 947       1.081e+01       1.520e+01       4.720e-01           0.198          -0.085           0.977       2.232e-02         -0.0245
 948       1.086e+01       1.520e+01       4.576e-01           0.387          -0.139           0.911       8.114e-03          0.0899
Strip 37
 949       1.092e+01       1.541e+01       4.576e-01           0.026           0.022          -0.999       4.331e-03          0.0801
 950       1.087e+01       1.541e+01       4.612e-01          -0.099           0.059          -0.993       1.280e-02          0.1885
 951       1.076e+01       1.541e+01       4.629e-01           0.036           0.017          -0.999       2.042e-02          0.2677
 952       1.062e+01       1.541e+01       4.470e-01           0.159          -0.023          -0.987       2.727e-02          0.2240
 953       1.043e+01       1.541e+01       4.119e-01           0.210          -0.042          -0.977       3.262e-02          0.0967
 954       1.022e+01       1.541e+01       3.702e-01           0.180          -0.030          -0.983       3.554e-02         -0.0751
 955       9.999e+00       1.541e+01       3.398e-01           0.090           0.008          -0.996       3.610e-02         -0.1961
 956       9.777e+00       1.541e+01       3.281e-01           0.014           0.044          -0.999       3.491e-02         -0.2246
 957       9.567e+00       1.541e+01       3.306e-01          -0.040           0.070          -0.997       3.188e-02         -0.2334
 958       9.382e+00       1.541e+01       3.428e-01          -0.097           0.099          -0.990       2.710e-02         -0.2598
 959       9.234e+00       1.541e+01       3.629e-01          -0.181           0.145          -0.973       2.091e-02         -0.3233
 960       9.129e+00       1.541e+01       3.919e-01          -0.381           0.256          -0.888       1.423e-02         -0.2964
 961       9.076e+00       1.541e+01       4.332e-01          -0.776           0.469          -0.423       9.932e-03          0.4280
 962       9.076e+00       1.541e+01       4.816e-01          -0.776           0.443           0.449       9.926e-03          0.2680
 963       9.129e+00       1.541e+01       5.229e-01          -0.382           0.203           0.902       1.422e-02         -0.5453
 964       9.234e+00       1.541e+01       5.514e-01          -0.175           0.084           0.981       2.085e-02         -0.4619
 965       9.382e+00       1.541e+01       5.709e-01          -0.093           0.039           0.995       2.704e-02         -0.3308
 966       9.567e+00       1.541e+01       5.831e-01          -0.042           0.012           0.999       3.183e-02         -0.2694
 967       9.777e+00       1.541e+01       5.878e-01          -0.005          -0.007           1.000       3.485e-02         -0.2377
 968       9.999e+00       1.541e+01       5.843e-01           0.036          -0.025           0.999       3.591e-02         -0.2217
 969       1.022e+01       1.541e+01       5.707e-01           0.087          -0.047           0.995       3.499e-02         -0.1891
 970       1.043e+01       1.541e+01       5.482e-01           0.128          -0.063           0.990       3.207e-02         -0.1331
 971       1.062e+01       1.541e+01       5.220e-01           0.156          -0.072           0.985       2.723e-02         -0.0852
 972       1.076e+01       1.541e+01       4.972e-01           0.177          -0.079           0.981       2.075e-02         -0.0574
 973       1.087e+01       1.541e+01       4.775e-01           0.198          -0.085           0.977       1.301e-02         -0.0682
 974       1.092e+01       1.541e+01       4.637e-01           0.387          -0.139           0.911       4.732e-03          0.0391
Strip 38
 975       1.095e+01       1.552e+01       4.607e-01           0.026           0.022          -0.999       1.423e-03          0.0154
 976       1.090e+01       1.552e+01       4.643e-01          -0.099           0.059          -0.993       4.206e-03          0.1006
 977       1.080e+01       1.552e+01       4.659e-01           0.036           0.017          -0.999       6.706e-03          0.1673
 978       1.065e+01       1.552e+01       4.503e-01           0.159          -0.023          -0.987       8.957e-03          0.1455
 979       1.047e+01       1.552e+01       4.158e-01           0.210          -0.042          -0.977       1.072e-02          0.0597
 980       1.026e+01       1.552e+01       3.748e-01           0.180          -0.030          -0.983       1.167e-02         -0.0643
 981       1.005e+01       1.552e+01       3.450e-01           0.090           0.008          -0.996       1.186e-02         -0.1535
 982       9.827e+00       1.552e+01       3.334e-01           0.014           0.044          -0.999       1.147e-02         -0.1752
 983       9.621e+00       1.552e+01       3.359e-01          -0.040           0.070          -0.997       1.047e-02         -0.1831
 984       9.439e+00       1.552e+01       3.479e-01          -0.097           0.099          -0.990       8.901e-03         -0.2033
 985       9.293e+00       1.552e+01       3.677e-01          -0.181           0.145          -0.973       6.867e-03         -0.2165
 986       9.191e+00       1.552e+01       3.961e-01          -0.382           0.256          -0.888       4.674e-03         -0.3105
 987       9.138e+00       1.552e+01       4.367e-01          -0.776           0.469          -0.422       3.262e-03          0.3182
 988       9.138e+00       1.552e+01       4.843e-01          -0.776           0.443           0.449       3.261e-03          0.1894
 989       9.191e+00       1.551e+01       5.249e-01          -0.382           0.203           0.902       4.670e-03         -0.5050
 990       9.293e+00       1.551e+01       5.530e-01          -0.175           0.084           0.981       6.849e-03         -0.3191
 991       9.439e+00       1.551e+01       5.721e-01          -0.093           0.039           0.995       8.884e-03         -0.2583
 992       9.621e+00       1.551e+01       5.841e-01          -0.042           0.012           0.999       1.046e-02         -0.2139
 993       9.827e+00       1.551e+01       5.888e-01          -0.005          -0.007           1.000       1.145e-02         -0.1898
 994       1.005e+01       1.551e+01       5.853e-01           0.036          -0.025           0.999       1.180e-02         -0.1754
 995       1.026e+01       1.551e+01       5.720e-01           0.087          -0.047           0.995       1.149e-02         -0.1463
 996       1.047e+01       1.551e+01       5.499e-01           0.128          -0.063           0.990       1.053e-02         -0.0980
 997       1.065e+01       1.551e+01       5.240e-01           0.156          -0.072           0.985       8.944e-03         -0.0602
 998       1.080e+01       1.552e+01       4.996e-01           0.177          -0.079           0.981       6.816e-03         -0.0529
 999       1.090e+01       1.552e+01       4.804e-01           0.198          -0.085           0.977       4.274e-03         -0.0963
1000       1.095e+01       1.552e+01       4.667e-01           0.387          -0.139           0.911       1.554e-03         -0.0045










