xflr5 v6.51

Plane Name
T1-10.0 m/s-Panel-Inviscid
QInf  =   10.000000 m/s
Alpha =  -10.000000
Beta  =    0.000°
Phi   =    0.000°
Ctrl  =    0.000
CL    =   -0.629245
Cy    =    0.000000
Cd    =    0.016376     ICd   =    0.016376     PCd   =    0.000000
Cl   = -0.000608654
Cm   =    0.643486
ICn   =   -0.000502     PCn   =   -0.000502
XCP   =    4.712721     YCP   =   -0.032439     ZCP   =   -0.026275
XNP   =    0.000000
Bending = -14984.860197

Main Wing
  y-span        Chord      Ai         Cl        PCd          ICd        CmGeom    CmAirf@chord/4    XTrtop    XTrBot      XCP       BM
  -15.5234     1.8429     1.751   -0.188222    0.000000    0.005757   13.233811    0.543687     0.0000    0.0000    0.4724    0.0000
  -15.4174     1.8744     2.009   -0.320672    0.000000    0.011257    1.832238   -0.064725     0.0000    0.0000    0.0680   -0.1236
  -15.2060     1.9373     2.440   -0.451608    0.000000    0.019248    2.197937   -0.088229     0.0000    0.0000    0.0547   -1.6473
  -14.8908     2.0311     2.434   -0.557551    0.000000    0.023707    2.509074   -0.088361     0.0000    0.0000    0.0877   -8.5210
  -14.4739     2.1551     2.207   -0.632510    0.000000    0.024387    2.624899   -0.082311     0.0000    0.0000    0.1154   -28.5648
  -13.9580     2.3085     1.929   -0.679269    0.000000    0.022889    2.558911   -0.076373     0.0000    0.0000    0.1330   -74.1392
  -13.3469     2.4903     1.689   -0.704222    0.000000    0.020778    2.370482   -0.072141     0.0000    0.0000    0.1429   -162.3549
  -12.6445     2.6992     1.518   -0.713814    0.000000    0.018935    2.117396   -0.069496     0.0000    0.0000    0.1479   -314.9843
  -11.8558     2.9338     1.414   -0.713001    0.000000    0.017625    1.840966   -0.067957     0.0000    0.0000    0.1499   -558.1667
  -10.9861     3.1924     1.365   -0.705143    0.000000    0.016820    1.566620   -0.067112     0.0000    0.0000    0.1500   -921.8995
  -10.0414     3.4734     1.354   -0.692367    0.000000    0.016391    1.308401   -0.066684     0.0000    0.0000    0.1489   -1439.2678
   -9.0280     3.7748     1.370   -0.675968    0.000000    0.016198    1.073127   -0.066497     0.0000    0.0000    0.1468   -2145.3699
   -7.9530     4.0946     1.403   -0.656710    0.000000    0.016123    0.863290   -0.066426     0.0000    0.0000    0.1439   -3075.9222
   -6.8237     4.4305     1.445   -0.635011    0.000000    0.016062    0.679060   -0.066356     0.0000    0.0000    0.1404   -4265.5661
   -5.6477     4.7802     1.488   -0.611065    0.000000    0.015916    0.519329   -0.066127     0.0000    0.0000    0.1366   -5745.9285
   -4.4332     5.1414     1.519   -0.584939    0.000000    0.015573    0.382575   -0.065442     0.0000    0.0000    0.1326   -7543.5222
   -3.1884     5.5117     1.525   -0.556719    0.000000    0.014902    0.267466   -0.063658     0.0000    0.0000    0.1297   -9677.6133
   -1.9218     5.8884     1.482   -0.526847    0.000000    0.013769    0.173568   -0.059277     0.0000    0.0000    0.1307   -12158.2555
   -0.6421     6.2690     1.397   -0.497996    0.000000    0.012576    0.131120    0.016525     0.0000    0.0000    0.2860   -14984.8596
    0.6421     6.2690     1.397   -0.497996    0.000000    0.012576    0.102557   -0.047602     0.0000    0.0000    0.1454   -14984.8602
    1.9218     5.8884     1.482   -0.526847    0.000000    0.013769    0.173568   -0.059277     0.0000    0.0000    0.1307   -12158.2560
    3.1884     5.5117     1.525   -0.556719    0.000000    0.014902    0.267466   -0.063658     0.0000    0.0000    0.1297   -9677.6138
    4.4332     5.1414     1.519   -0.584939    0.000000    0.015573    0.382575   -0.065442     0.0000    0.0000    0.1326   -7543.5226
    5.6477     4.7802     1.488   -0.611065    0.000000    0.015916    0.519329   -0.066127     0.0000    0.0000    0.1366   -5745.9289
    6.8237     4.4305     1.445   -0.635011    0.000000    0.016062    0.679060   -0.066356     0.0000    0.0000    0.1404   -4265.5664
    7.9530     4.0946     1.403   -0.656710    0.000000    0.016123    0.863290   -0.066426     0.0000    0.0000    0.1439   -3075.9225
    9.0280     3.7748     1.370   -0.675968    0.000000    0.016198    1.073127   -0.066497     0.0000    0.0000    0.1468   -2145.3701
   10.0414     3.4734     1.354   -0.692367    0.000000    0.016391    1.308401   -0.066684     0.0000    0.0000    0.1489   -1439.2680
   10.9861     3.1924     1.365   -0.705143    0.000000    0.016820    1.566620   -0.067112     0.0000    0.0000    0.1500   -921.8996
   11.8558     2.9338     1.414   -0.713001    0.000000    0.017625    1.840966   -0.067957     0.0000    0.0000    0.1499   -558.1668
   12.6445     2.6992     1.518   -0.713814    0.000000    0.018935    2.117395   -0.069496     0.0000    0.0000    0.1479   -314.9844
   13.3469     2.4903     1.689   -0.704222    0.000000    0.020778    2.370479   -0.072141     0.0000    0.0000    0.1429   -162.3549
   13.9580     2.3085     1.929   -0.679269    0.000000    0.022889    2.558901   -0.076373     0.0000    0.0000    0.1330   -74.1392
   14.4739     2.1551     2.207   -0.632510    0.000000    0.024387    2.624858   -0.082310     0.0000    0.0000    0.1154   -28.5648
   14.8908     2.0311     2.434   -0.557551    0.000000    0.023707    2.508872   -0.088358     0.0000    0.0000    0.0877   -8.5210
   15.2060     1.9373     2.440   -0.451608    0.000000    0.019248    2.196537   -0.088188     0.0000    0.0000    0.0546   -1.6473
   15.4174     1.8744     2.009   -0.320672    0.000000    0.011257    1.823151   -0.064385     0.0000    0.0000    0.0681   -0.1236
   15.5234     1.8429     1.751   -0.188222    0.000000    0.005757    1.388910   -0.045717     0.0000    0.0000    0.0739    0.0000


Main Wing Cp Coefficients
 Panel     CtrlPt.x        CtrlPt.y        CtrlPt.z       Nx      Ny       Nz        Area       Cp
Main WingCp Coefficients
Strip 1
  13       1.095e+01      -1.552e+01       4.607e-01           0.026          -0.022          -0.999       1.423e-03         -2.2407
  14       1.090e+01      -1.552e+01       4.643e-01          -0.099          -0.059          -0.993       4.206e-03         -2.1871
  15       1.080e+01      -1.552e+01       4.659e-01           0.036          -0.017          -0.999       6.706e-03         -2.1986
  16       1.065e+01      -1.552e+01       4.503e-01           0.159           0.023          -0.987       8.957e-03         -2.4046
  17       1.047e+01      -1.552e+01       4.158e-01           0.210           0.042          -0.977       1.072e-02         -2.7267
  18       1.026e+01      -1.552e+01       3.748e-01           0.180           0.030          -0.983       1.167e-02         -3.0555
  19       1.005e+01      -1.552e+01       3.450e-01           0.090          -0.008          -0.996       1.186e-02         -3.2239
  20       9.827e+00      -1.552e+01       3.334e-01           0.014          -0.044          -0.999       1.147e-02         -3.1419
  21       9.621e+00      -1.552e+01       3.359e-01          -0.040          -0.070          -0.997       1.047e-02         -2.8624
  22       9.439e+00      -1.552e+01       3.479e-01          -0.097          -0.099          -0.990       8.901e-03         -2.4880
  23       9.293e+00      -1.552e+01       3.677e-01          -0.181          -0.145          -0.973       6.867e-03         -2.2009
  24       9.191e+00      -1.552e+01       3.961e-01          -0.382          -0.256          -0.888       4.674e-03         -2.6218
  25       9.138e+00      -1.552e+01       4.367e-01          -0.776          -0.469          -0.422       3.262e-03         -2.7479
  26       9.138e+00      -1.552e+01       4.843e-01          -0.776          -0.443           0.449       3.261e-03          0.2089
  27       9.191e+00      -1.551e+01       5.249e-01          -0.382          -0.203           0.902       4.670e-03          0.2742
  28       9.293e+00      -1.551e+01       5.530e-01          -0.175          -0.084           0.981       6.849e-03          0.0293
  29       9.439e+00      -1.551e+01       5.721e-01          -0.093          -0.039           0.995       8.884e-03         -0.0787
  30       9.621e+00      -1.551e+01       5.841e-01          -0.042          -0.012           0.999       1.046e-02         -0.1310
  31       9.827e+00      -1.551e+01       5.888e-01          -0.005           0.007           1.000       1.145e-02         -0.1702
  32       1.005e+01      -1.551e+01       5.853e-01           0.036           0.025           0.999       1.180e-02         -0.2152
  33       1.026e+01      -1.551e+01       5.720e-01           0.087           0.047           0.995       1.149e-02         -0.2700
  34       1.047e+01      -1.551e+01       5.499e-01           0.128           0.063           0.990       1.053e-02         -0.3323
  35       1.065e+01      -1.551e+01       5.240e-01           0.156           0.072           0.985       8.944e-03         -0.4009
  36       1.080e+01      -1.552e+01       4.996e-01           0.177           0.079           0.981       6.816e-03         -0.4492
  37       1.090e+01      -1.552e+01       4.804e-01           0.198           0.085           0.977       4.274e-03         -0.5001
  38       1.095e+01      -1.552e+01       4.667e-01           0.387           0.139           0.911       1.554e-03         -0.5261
Strip 2
  39       1.092e+01      -1.541e+01       4.576e-01           0.026          -0.022          -0.999       4.331e-03         -0.2024
  40       1.087e+01      -1.541e+01       4.612e-01          -0.099          -0.059          -0.993       1.280e-02         -0.1210
  41       1.076e+01      -1.541e+01       4.629e-01           0.036          -0.017          -0.999       2.042e-02          0.0106
  42       1.062e+01      -1.541e+01       4.470e-01           0.159           0.023          -0.987       2.727e-02          0.0078
  43       1.043e+01      -1.541e+01       4.119e-01           0.210           0.042          -0.977       3.262e-02         -0.0762
  44       1.022e+01      -1.541e+01       3.702e-01           0.180           0.030          -0.983       3.554e-02         -0.2479
  45       9.999e+00      -1.541e+01       3.398e-01           0.090          -0.008          -0.996       3.610e-02         -0.4207
  46       9.777e+00      -1.541e+01       3.281e-01           0.014          -0.044          -0.999       3.491e-02         -0.5065
  47       9.567e+00      -1.541e+01       3.306e-01          -0.040          -0.070          -0.997       3.188e-02         -0.5966
  48       9.382e+00      -1.541e+01       3.428e-01          -0.097          -0.099          -0.990       2.710e-02         -0.7982
  49       9.234e+00      -1.541e+01       3.629e-01          -0.181          -0.145          -0.973       2.091e-02         -1.2856
  50       9.129e+00      -1.541e+01       3.919e-01          -0.381          -0.256          -0.888       1.423e-02         -2.3231
  51       9.076e+00      -1.541e+01       4.332e-01          -0.776          -0.469          -0.423       9.932e-03         -1.6836
  52       9.076e+00      -1.541e+01       4.816e-01          -0.776          -0.443           0.449       9.926e-03          0.2062
  53       9.129e+00      -1.541e+01       5.229e-01          -0.382          -0.203           0.902       1.422e-02          0.4388
  54       9.234e+00      -1.541e+01       5.514e-01          -0.175          -0.084           0.981       2.085e-02          0.1425
  55       9.382e+00      -1.541e+01       5.709e-01          -0.093          -0.039           0.995       2.704e-02         -0.0066
  56       9.567e+00      -1.541e+01       5.831e-01          -0.042          -0.012           0.999       3.183e-02         -0.0840
  57       9.777e+00      -1.541e+01       5.878e-01          -0.005           0.007           1.000       3.485e-02         -0.1342
  58       9.999e+00      -1.541e+01       5.843e-01           0.036           0.025           0.999       3.591e-02         -0.1775
  59       1.022e+01      -1.541e+01       5.707e-01           0.087           0.047           0.995       3.499e-02         -0.2055
  60       1.043e+01      -1.541e+01       5.482e-01           0.128           0.063           0.990       3.207e-02         -0.2115
  61       1.062e+01      -1.541e+01       5.220e-01           0.156           0.072           0.985       2.723e-02         -0.2156
  62       1.076e+01      -1.541e+01       4.972e-01           0.177           0.079           0.981       2.075e-02         -0.2250
  63       1.087e+01      -1.541e+01       4.775e-01           0.198           0.085           0.977       1.301e-02         -0.2552
  64       1.092e+01      -1.541e+01       4.637e-01           0.387           0.139           0.911       4.732e-03         -0.2575
Strip 3
  65       1.086e+01      -1.520e+01       4.513e-01           0.026          -0.022          -0.999       7.426e-03          0.0986
  66       1.081e+01      -1.520e+01       4.551e-01          -0.099          -0.059          -0.993       2.196e-02          0.1715
  67       1.070e+01      -1.520e+01       4.568e-01           0.036          -0.017          -0.999       3.501e-02          0.2780
  68       1.054e+01      -1.520e+01       4.404e-01           0.159           0.023          -0.987       4.675e-02          0.2264
  69       1.035e+01      -1.520e+01       4.041e-01           0.210           0.042          -0.977       5.593e-02          0.0539
  70       1.014e+01      -1.520e+01       3.610e-01           0.180           0.030          -0.983       6.093e-02         -0.2040
  71       9.906e+00      -1.520e+01       3.296e-01           0.090          -0.008          -0.996       6.190e-02         -0.4365
  72       9.676e+00      -1.520e+01       3.174e-01           0.014          -0.044          -0.999       5.986e-02         -0.5659
  73       9.460e+00      -1.520e+01       3.201e-01          -0.040          -0.070          -0.997       5.467e-02         -0.7065
  74       9.269e+00      -1.520e+01       3.327e-01          -0.097          -0.099          -0.990       4.647e-02         -0.9721
  75       9.115e+00      -1.520e+01       3.535e-01          -0.181          -0.145          -0.973       3.585e-02         -1.5373
  76       9.007e+00      -1.520e+01       3.834e-01          -0.381          -0.256          -0.888       2.441e-02         -2.7040
  77       8.952e+00      -1.520e+01       4.261e-01          -0.776          -0.469          -0.423       1.703e-02         -2.0243
  78       8.952e+00      -1.520e+01       4.761e-01          -0.776          -0.443           0.449       1.702e-02          0.2060
  79       9.007e+00      -1.520e+01       5.188e-01          -0.382          -0.203           0.902       2.437e-02          0.6192
  80       9.115e+00      -1.520e+01       5.483e-01          -0.175          -0.084           0.981       3.574e-02          0.3154
  81       9.269e+00      -1.520e+01       5.684e-01          -0.093          -0.039           0.995       4.637e-02          0.1197
  82       9.460e+00      -1.520e+01       5.810e-01          -0.042          -0.012           0.999       5.458e-02          0.0007
  83       9.676e+00      -1.520e+01       5.859e-01          -0.005           0.007           1.000       5.976e-02         -0.0741
  84       9.906e+00      -1.520e+01       5.823e-01           0.036           0.025           0.999       6.158e-02         -0.1272
  85       1.014e+01      -1.520e+01       5.683e-01           0.087           0.047           0.995       5.999e-02         -0.1491
  86       1.035e+01      -1.520e+01       5.450e-01           0.128           0.063           0.990       5.499e-02         -0.1308
  87       1.054e+01      -1.520e+01       5.179e-01           0.156           0.072           0.985       4.670e-02         -0.0965
  88       1.070e+01      -1.520e+01       4.922e-01           0.176           0.079           0.981       3.559e-02         -0.0681
  89       1.081e+01      -1.520e+01       4.720e-01           0.198           0.085           0.977       2.232e-02         -0.0667
  90       1.086e+01      -1.520e+01       4.576e-01           0.387           0.139           0.911       8.114e-03         -0.0378
Strip 4
  91       1.077e+01      -1.488e+01       4.420e-01           0.026          -0.022          -0.999       1.083e-02          0.1775
  92       1.071e+01      -1.488e+01       4.459e-01          -0.099          -0.059          -0.993       3.201e-02          0.2401
  93       1.060e+01      -1.488e+01       4.477e-01           0.036          -0.017          -0.999       5.103e-02          0.3305
  94       1.044e+01      -1.488e+01       4.305e-01           0.159           0.023          -0.987       6.815e-02          0.2644
  95       1.024e+01      -1.489e+01       3.925e-01           0.210           0.042          -0.977       8.152e-02          0.0707
  96       1.001e+01      -1.489e+01       3.473e-01           0.180           0.030          -0.983       8.881e-02         -0.2185
  97       9.768e+00      -1.489e+01       3.144e-01           0.090          -0.008          -0.996       9.022e-02         -0.4847
  98       9.527e+00      -1.489e+01       3.016e-01           0.014          -0.044          -0.999       8.726e-02         -0.6443
  99       9.300e+00      -1.489e+01       3.044e-01          -0.040          -0.070          -0.997       7.970e-02         -0.8104
 100       9.100e+00      -1.489e+01       3.176e-01          -0.096          -0.099          -0.990       6.775e-02         -1.0971
 101       8.938e+00      -1.489e+01       3.394e-01          -0.181          -0.145          -0.973       5.227e-02         -1.6958
 102       8.825e+00      -1.489e+01       3.708e-01          -0.381          -0.256          -0.888       3.560e-02         -2.9497
 103       8.767e+00      -1.488e+01       4.155e-01          -0.775          -0.468          -0.424       2.484e-02         -2.2793
 104       8.767e+00      -1.488e+01       4.680e-01          -0.776          -0.443           0.448       2.480e-02          0.1274
 105       8.825e+00      -1.488e+01       5.127e-01          -0.382          -0.203           0.902       3.551e-02          0.6830
 106       8.938e+00      -1.488e+01       5.437e-01          -0.176          -0.084           0.981       5.210e-02          0.4083
 107       9.100e+00      -1.488e+01       5.648e-01          -0.093          -0.039           0.995       6.759e-02          0.2095
 108       9.300e+00      -1.488e+01       5.780e-01          -0.042          -0.012           0.999       7.956e-02          0.0746
 109       9.527e+00      -1.488e+01       5.831e-01          -0.005           0.007           1.000       8.712e-02         -0.0193
 110       9.768e+00      -1.488e+01       5.793e-01           0.036           0.025           0.999       8.977e-02         -0.0871
 111       1.001e+01      -1.488e+01       5.646e-01           0.087           0.047           0.995       8.746e-02         -0.1158
 112       1.024e+01      -1.488e+01       5.402e-01           0.128           0.063           0.990       8.017e-02         -0.0957
 113       1.044e+01      -1.488e+01       5.118e-01           0.156           0.072           0.985       6.808e-02         -0.0563
 114       1.060e+01      -1.488e+01       4.849e-01           0.176           0.079           0.981       5.188e-02         -0.0232
 115       1.071e+01      -1.488e+01       4.636e-01           0.198           0.085           0.977       3.253e-02         -0.0150
 116       1.077e+01      -1.488e+01       4.486e-01           0.387           0.139           0.911       1.183e-02          0.0233
Strip 5
 117       1.065e+01      -1.447e+01       4.296e-01           0.026          -0.022          -0.999       1.463e-02          0.1986
 118       1.059e+01      -1.447e+01       4.338e-01          -0.099          -0.059          -0.993       4.327e-02          0.2549
 119       1.047e+01      -1.447e+01       4.357e-01           0.036          -0.017          -0.999       6.898e-02          0.3358
 120       1.029e+01      -1.447e+01       4.175e-01           0.159           0.023          -0.987       9.211e-02          0.2606
 121       1.008e+01      -1.447e+01       3.771e-01           0.210           0.042          -0.977       1.102e-01          0.0555
 122       9.841e+00      -1.447e+01       3.292e-01           0.180           0.030          -0.983       1.200e-01         -0.2496
 123       9.585e+00      -1.447e+01       2.942e-01           0.090          -0.008          -0.996       1.219e-01         -0.5334
 124       9.329e+00      -1.447e+01       2.807e-01           0.014          -0.044          -0.999       1.179e-01         -0.7060
 125       9.088e+00      -1.447e+01       2.836e-01          -0.040          -0.070          -0.997       1.077e-01         -0.8796
 126       8.876e+00      -1.447e+01       2.977e-01          -0.096          -0.099          -0.990       9.159e-02         -1.1737
 127       8.705e+00      -1.447e+01       3.208e-01          -0.181          -0.145          -0.973       7.067e-02         -1.7921
 128       8.585e+00      -1.447e+01       3.541e-01          -0.381          -0.256          -0.889       4.814e-02         -3.1029
 129       8.523e+00      -1.447e+01       4.015e-01          -0.775          -0.468          -0.425       3.359e-02         -2.4472
 130       8.523e+00      -1.447e+01       4.572e-01          -0.777          -0.444           0.447       3.350e-02          0.0618
 131       8.585e+00      -1.447e+01       5.047e-01          -0.382          -0.203           0.902       4.798e-02          0.7081
 132       8.705e+00      -1.446e+01       5.376e-01          -0.176          -0.084           0.981       7.041e-02          0.4540
 133       8.876e+00      -1.446e+01       5.599e-01          -0.093          -0.039           0.995       9.135e-02          0.2586
 134       9.088e+00      -1.446e+01       5.739e-01          -0.042          -0.012           0.999       1.075e-01          0.1222
 135       9.329e+00      -1.446e+01       5.794e-01          -0.005           0.007           1.000       1.178e-01          0.0218
 136       9.585e+00      -1.446e+01       5.753e-01           0.036           0.025           0.999       1.213e-01         -0.0546
 137       9.841e+00      -1.446e+01       5.597e-01           0.087           0.047           0.995       1.182e-01         -0.0905
 138       1.008e+01      -1.447e+01       5.339e-01           0.128           0.063           0.990       1.084e-01         -0.0743
 139       1.029e+01      -1.447e+01       5.037e-01           0.155           0.072           0.985       9.203e-02         -0.0366
 140       1.047e+01      -1.447e+01       4.751e-01           0.176           0.079           0.981       7.013e-02         -0.0047
 141       1.059e+01      -1.447e+01       4.526e-01           0.198           0.085           0.977       4.398e-02          0.0028
 142       1.065e+01      -1.447e+01       4.367e-01           0.387           0.139           0.911       1.600e-02          0.0428
Strip 6
 143       1.050e+01      -1.395e+01       4.143e-01           0.026          -0.022          -0.999       1.894e-02          0.2023
 144       1.043e+01      -1.395e+01       4.188e-01          -0.099          -0.059          -0.993       5.601e-02          0.2553
 145       1.030e+01      -1.395e+01       4.209e-01           0.036          -0.017          -0.999       8.927e-02          0.3310
 146       1.012e+01      -1.395e+01       4.013e-01           0.159           0.023          -0.987       1.192e-01          0.2506
 147       9.891e+00      -1.395e+01       3.580e-01           0.210           0.042          -0.977       1.426e-01          0.0389
 148       9.633e+00      -1.395e+01       3.067e-01           0.180           0.030          -0.983       1.553e-01         -0.2747
 149       9.359e+00      -1.395e+01       2.693e-01           0.090          -0.008          -0.996       1.578e-01         -0.5666
 150       9.084e+00      -1.396e+01       2.548e-01           0.014          -0.044          -0.999       1.527e-01         -0.7436
 151       8.826e+00      -1.396e+01       2.579e-01          -0.040          -0.070          -0.997       1.394e-01         -0.9191
 152       8.599e+00      -1.395e+01       2.730e-01          -0.096          -0.099          -0.990       1.185e-01         -1.2162
 153       8.416e+00      -1.395e+01       2.977e-01          -0.181          -0.145          -0.973       9.149e-02         -1.8450
 154       8.287e+00      -1.395e+01       3.334e-01          -0.381          -0.255          -0.889       6.233e-02         -3.1863
 155       8.221e+00      -1.395e+01       3.842e-01          -0.775          -0.468          -0.425       4.350e-02         -2.5409
 156       8.221e+00      -1.395e+01       4.439e-01          -0.777          -0.444           0.446       4.334e-02          0.0216
 157       8.287e+00      -1.395e+01       4.948e-01          -0.382          -0.203           0.901       6.207e-02          0.7191
 158       8.416e+00      -1.395e+01       5.300e-01          -0.176          -0.084           0.981       9.110e-02          0.4769
 159       8.599e+00      -1.395e+01       5.539e-01          -0.093          -0.039           0.995       1.182e-01          0.2844
 160       8.826e+00      -1.395e+01       5.689e-01          -0.042          -0.012           0.999       1.392e-01          0.1491
 161       9.084e+00      -1.395e+01       5.748e-01          -0.005           0.007           1.000       1.524e-01          0.0479
 162       9.359e+00      -1.395e+01       5.704e-01           0.036           0.025           0.999       1.571e-01         -0.0313
 163       9.633e+00      -1.395e+01       5.537e-01           0.087           0.047           0.995       1.530e-01         -0.0711
 164       9.891e+00      -1.395e+01       5.260e-01           0.128           0.063           0.990       1.403e-01         -0.0585
 165       1.012e+01      -1.395e+01       4.937e-01           0.155           0.072           0.985       1.191e-01         -0.0242
 166       1.030e+01      -1.395e+01       4.631e-01           0.176           0.079           0.981       9.078e-02          0.0049
 167       1.043e+01      -1.395e+01       4.389e-01           0.198           0.085           0.977       5.693e-02          0.0098
 168       1.050e+01      -1.395e+01       4.219e-01           0.387           0.139           0.911       2.071e-02          0.0491
Strip 7
 169       1.032e+01      -1.334e+01       3.962e-01           0.026          -0.022          -0.999       2.381e-02          0.2018
 170       1.025e+01      -1.334e+01       4.010e-01          -0.099          -0.059          -0.993       7.042e-02          0.2530
 171       1.011e+01      -1.334e+01       4.033e-01           0.036          -0.017          -0.999       1.122e-01          0.3261
 172       9.910e+00      -1.334e+01       3.822e-01           0.159           0.023          -0.987       1.498e-01          0.2429
 173       9.665e+00      -1.334e+01       3.355e-01           0.210           0.042          -0.977       1.792e-01          0.0278
 174       9.386e+00      -1.334e+01       2.801e-01           0.180           0.030          -0.983       1.952e-01         -0.2898
 175       9.090e+00      -1.334e+01       2.397e-01           0.090          -0.008          -0.996       1.984e-01         -0.5850
 176       8.794e+00      -1.334e+01       2.241e-01           0.014          -0.044          -0.999       1.919e-01         -0.7632
 177       8.516e+00      -1.334e+01       2.274e-01          -0.040          -0.070          -0.997       1.753e-01         -0.9384
 178       8.271e+00      -1.334e+01       2.437e-01          -0.096          -0.099          -0.990       1.491e-01         -1.2357
 179       8.073e+00      -1.334e+01       2.704e-01          -0.181          -0.145          -0.973       1.151e-01         -1.8671
 180       7.934e+00      -1.334e+01       3.089e-01          -0.381          -0.255          -0.889       7.840e-02         -3.2170
 181       7.863e+00      -1.334e+01       3.638e-01          -0.774          -0.468          -0.426       5.471e-02         -2.5760
 182       7.863e+00      -1.334e+01       4.281e-01          -0.777          -0.444           0.445       5.447e-02          0.0053
 183       7.934e+00      -1.334e+01       4.830e-01          -0.382          -0.203           0.901       7.801e-02          0.7241
 184       8.073e+00      -1.334e+01       5.210e-01          -0.176          -0.084           0.981       1.145e-01          0.4874
 185       8.271e+00      -1.334e+01       5.468e-01          -0.093          -0.039           0.995       1.486e-01          0.2967
 186       8.516e+00      -1.334e+01       5.630e-01          -0.042          -0.012           0.999       1.750e-01          0.1630
 187       8.794e+00      -1.334e+01       5.693e-01          -0.005           0.007           1.000       1.916e-01          0.0624
 188       9.090e+00      -1.334e+01       5.646e-01           0.036           0.025           0.999       1.975e-01         -0.0173
 189       9.386e+00      -1.334e+01       5.466e-01           0.087           0.047           0.995       1.924e-01         -0.0584
 190       9.665e+00      -1.334e+01       5.167e-01           0.128           0.063           0.990       1.764e-01         -0.0481
 191       9.910e+00      -1.334e+01       4.818e-01           0.155           0.072           0.985       1.498e-01         -0.0162
 192       1.011e+01      -1.334e+01       4.488e-01           0.176           0.079           0.981       1.142e-01          0.0106
 193       1.025e+01      -1.334e+01       4.228e-01           0.197           0.085           0.977       7.159e-02          0.0130
 194       1.032e+01      -1.334e+01       4.044e-01           0.387           0.139           0.912       2.604e-02          0.0513
Strip 8
 195       1.011e+01      -1.264e+01       3.754e-01           0.026          -0.022          -0.999       2.929e-02          0.2011
 196       1.003e+01      -1.264e+01       3.806e-01          -0.099          -0.059          -0.993       8.665e-02          0.2512
 197       9.884e+00      -1.264e+01       3.831e-01           0.036          -0.017          -0.999       1.381e-01          0.3229
 198       9.670e+00      -1.264e+01       3.602e-01           0.159           0.023          -0.987       1.843e-01          0.2384
 199       9.404e+00      -1.264e+01       3.096e-01           0.210           0.042          -0.977       2.205e-01          0.0219
 200       9.102e+00      -1.264e+01       2.496e-01           0.180           0.030          -0.983       2.402e-01         -0.2971
 201       8.782e+00      -1.264e+01       2.058e-01           0.090          -0.008          -0.996       2.441e-01         -0.5931
 202       8.461e+00      -1.264e+01       1.888e-01           0.014          -0.044          -0.999       2.361e-01         -0.7708
 203       8.159e+00      -1.264e+01       1.925e-01          -0.040          -0.070          -0.997       2.157e-01         -0.9445
 204       7.893e+00      -1.264e+01       2.101e-01          -0.096          -0.099          -0.990       1.834e-01         -1.2397
 205       7.679e+00      -1.264e+01       2.391e-01          -0.181          -0.145          -0.973       1.416e-01         -1.8676
 206       7.529e+00      -1.264e+01       2.808e-01          -0.380          -0.255          -0.889       9.651e-02         -3.2095
 207       7.452e+00      -1.264e+01       3.402e-01          -0.774          -0.468          -0.427       6.735e-02         -2.5674
 208       7.452e+00      -1.264e+01       4.100e-01          -0.778          -0.444           0.444       6.698e-02          0.0082
 209       7.529e+00      -1.264e+01       4.695e-01          -0.383          -0.204           0.901       9.593e-02          0.7261
 210       7.679e+00      -1.264e+01       5.106e-01          -0.176          -0.084           0.981       1.409e-01          0.4901
 211       7.893e+00      -1.264e+01       5.386e-01          -0.093          -0.039           0.995       1.828e-01          0.3010
 212       8.159e+00      -1.264e+01       5.562e-01          -0.042          -0.012           0.999       2.153e-01          0.1686
 213       8.461e+00      -1.264e+01       5.630e-01          -0.005           0.007           1.000       2.358e-01          0.0690
 214       8.782e+00      -1.264e+01       5.580e-01           0.036           0.025           0.999       2.430e-01         -0.0102
 215       9.102e+00      -1.264e+01       5.384e-01           0.087           0.047           0.995       2.368e-01         -0.0516
 216       9.404e+00      -1.264e+01       5.060e-01           0.128           0.063           0.990       2.171e-01         -0.0421
 217       9.670e+00      -1.264e+01       4.682e-01           0.155           0.072           0.985       1.843e-01         -0.0116
 218       9.884e+00      -1.264e+01       4.324e-01           0.176           0.079           0.981       1.405e-01          0.0139
 219       1.003e+01      -1.264e+01       4.042e-01           0.197           0.085           0.977       8.809e-02          0.0147
 220       1.011e+01      -1.264e+01       3.842e-01           0.387           0.139           0.912       3.205e-02          0.0525
Strip 9
 221       9.881e+00      -1.185e+01       3.520e-01           0.026          -0.022          -0.999       3.541e-02          0.2006
 222       9.797e+00      -1.185e+01       3.577e-01          -0.099          -0.059          -0.993       1.048e-01          0.2502
 223       9.634e+00      -1.185e+01       3.604e-01           0.036          -0.017          -0.999       1.669e-01          0.3212
 224       9.401e+00      -1.185e+01       3.355e-01           0.159           0.023          -0.987       2.228e-01          0.2362
 225       9.112e+00      -1.185e+01       2.805e-01           0.210           0.042          -0.977       2.665e-01          0.0195
 226       8.784e+00      -1.185e+01       2.153e-01           0.180           0.030          -0.983       2.903e-01         -0.2993
 227       8.436e+00      -1.185e+01       1.677e-01           0.090          -0.008          -0.996       2.951e-01         -0.5945
 228       8.087e+00      -1.185e+01       1.492e-01           0.014          -0.044          -0.999       2.855e-01         -0.7706
 229       7.759e+00      -1.185e+01       1.532e-01          -0.040          -0.070          -0.997       2.608e-01         -0.9420
 230       7.470e+00      -1.185e+01       1.724e-01          -0.096          -0.099          -0.990       2.218e-01         -1.2332
 231       7.237e+00      -1.185e+01       2.038e-01          -0.181          -0.145          -0.973       1.712e-01         -1.8532
 232       7.074e+00      -1.185e+01       2.492e-01          -0.380          -0.255          -0.889       1.167e-01         -3.1746
 233       6.990e+00      -1.185e+01       3.138e-01          -0.773          -0.467          -0.428       8.146e-02         -2.5268
 234       6.990e+00      -1.185e+01       3.896e-01          -0.778          -0.444           0.444       8.094e-02          0.0255
 235       7.074e+00      -1.185e+01       4.543e-01          -0.383          -0.204           0.901       1.159e-01          0.7264
 236       7.237e+00      -1.185e+01       4.990e-01          -0.176          -0.084           0.981       1.703e-01          0.4877
 237       7.470e+00      -1.185e+01       5.295e-01          -0.093          -0.039           0.995       2.210e-01          0.3000
 238       7.759e+00      -1.185e+01       5.485e-01          -0.042          -0.012           0.999       2.602e-01          0.1691
 239       8.087e+00      -1.185e+01       5.560e-01          -0.005           0.007           1.000       2.850e-01          0.0706
 240       8.436e+00      -1.185e+01       5.505e-01           0.036           0.025           0.999       2.937e-01         -0.0078
 241       8.784e+00      -1.185e+01       5.292e-01           0.087           0.047           0.995       2.863e-01         -0.0488
 242       9.112e+00      -1.185e+01       4.940e-01           0.128           0.063           0.990       2.624e-01         -0.0394
 243       9.401e+00      -1.185e+01       4.529e-01           0.155           0.072           0.985       2.229e-01         -0.0094
 244       9.634e+00      -1.185e+01       4.140e-01           0.176           0.079           0.981       1.698e-01          0.0156
 245       9.797e+00      -1.185e+01       3.833e-01           0.197           0.085           0.977       1.065e-01          0.0157
 246       9.881e+00      -1.185e+01       3.616e-01           0.387           0.139           0.912       3.875e-02          0.0531
Strip 10
 247       9.627e+00      -1.098e+01       3.263e-01           0.026          -0.022          -0.999       4.216e-02          0.2006
 248       9.535e+00      -1.098e+01       3.324e-01          -0.099          -0.059          -0.993       1.247e-01          0.2500
 249       9.358e+00      -1.098e+01       3.353e-01           0.036          -0.017          -0.999       1.987e-01          0.3206
 250       9.104e+00      -1.098e+01       3.082e-01           0.159           0.023          -0.987       2.653e-01          0.2356
 251       8.790e+00      -1.098e+01       2.484e-01           0.210           0.042          -0.977       3.172e-01          0.0193
 252       8.433e+00      -1.098e+01       1.774e-01           0.180           0.030          -0.983       3.456e-01         -0.2982
 253       8.054e+00      -1.098e+01       1.256e-01           0.090          -0.008          -0.996       3.512e-01         -0.5915
 254       7.674e+00      -1.098e+01       1.056e-01           0.014          -0.044          -0.999       3.399e-01         -0.7653
 255       7.317e+00      -1.098e+01       1.099e-01          -0.040          -0.070          -0.997       3.105e-01         -0.9336
 256       7.003e+00      -1.098e+01       1.307e-01          -0.096          -0.099          -0.990       2.641e-01         -1.2194
 257       6.750e+00      -1.098e+01       1.650e-01          -0.181          -0.145          -0.973       2.039e-01         -1.8279
 258       6.572e+00      -1.098e+01       2.143e-01          -0.380          -0.255          -0.889       1.390e-01         -3.1203
 259       6.481e+00      -1.098e+01       2.846e-01          -0.773          -0.467          -0.429       9.702e-02         -2.4633
 260       6.481e+00      -1.098e+01       3.672e-01          -0.779          -0.445           0.443       9.633e-02          0.0534
 261       6.572e+00      -1.098e+01       4.375e-01          -0.383          -0.204           0.901       1.380e-01          0.7253
 262       6.750e+00      -1.098e+01       4.862e-01          -0.176          -0.084           0.981       2.027e-01          0.4818
 263       7.003e+00      -1.098e+01       5.193e-01          -0.093          -0.039           0.995       2.631e-01          0.2954
 264       7.317e+00      -1.098e+01       5.401e-01          -0.042          -0.012           0.999       3.098e-01          0.1661
 265       7.674e+00      -1.098e+01       5.482e-01          -0.005           0.007           1.000       3.393e-01          0.0689
 266       8.054e+00      -1.098e+01       5.422e-01           0.036           0.025           0.999       3.497e-01         -0.0085
 267       8.433e+00      -1.098e+01       5.190e-01           0.087           0.047           0.995       3.408e-01         -0.0487
 268       8.790e+00      -1.098e+01       4.807e-01           0.128           0.063           0.990       3.125e-01         -0.0389
 269       9.104e+00      -1.098e+01       4.360e-01           0.155           0.072           0.985       2.654e-01         -0.0087
 270       9.358e+00      -1.098e+01       3.937e-01           0.176           0.079           0.981       2.022e-01          0.0162
 271       9.535e+00      -1.098e+01       3.603e-01           0.197           0.085           0.977       1.268e-01          0.0161
 272       9.627e+00      -1.098e+01       3.367e-01           0.387           0.139           0.912       4.615e-02          0.0537
Strip 11
 273       9.350e+00      -1.004e+01       2.983e-01           0.026          -0.022          -0.999       4.950e-02          0.2010
 274       9.251e+00      -1.004e+01       3.050e-01          -0.099          -0.059          -0.993       1.465e-01          0.2502
 275       9.058e+00      -1.004e+01       3.081e-01           0.036          -0.017          -0.999       2.334e-01          0.3207
 276       8.782e+00      -1.004e+01       2.787e-01           0.159           0.023          -0.987       3.114e-01          0.2359
 277       8.440e+00      -1.004e+01       2.135e-01           0.210           0.042          -0.977       3.724e-01          0.0207
 278       8.051e+00      -1.004e+01       1.363e-01           0.181           0.030          -0.983       4.057e-01         -0.2950
 279       7.639e+00      -1.004e+01       7.995e-02           0.090          -0.008          -0.996       4.124e-01         -0.5855
 280       7.226e+00      -1.004e+01       5.812e-02           0.014          -0.044          -0.999       3.990e-01         -0.7565
 281       6.838e+00      -1.004e+01       6.280e-02          -0.040          -0.070          -0.997       3.646e-01         -0.9210
 282       6.496e+00      -1.004e+01       8.552e-02          -0.096          -0.099          -0.990       3.101e-01         -1.2003
 283       6.220e+00      -1.004e+01       1.228e-01          -0.181          -0.145          -0.973       2.394e-01         -1.7949
 284       6.027e+00      -1.004e+01       1.765e-01          -0.380          -0.255          -0.889       1.633e-01         -3.0511
 285       5.927e+00      -1.004e+01       2.530e-01          -0.773          -0.467          -0.430       1.140e-01         -2.3826
 286       5.927e+00      -1.004e+01       3.428e-01          -0.779          -0.445           0.442       1.131e-01          0.0889
 287       6.027e+00      -1.004e+01       4.193e-01          -0.383          -0.204           0.901       1.619e-01          0.7229
 288       6.220e+00      -1.004e+01       4.723e-01          -0.176          -0.084           0.981       2.379e-01          0.4731
 289       6.496e+00      -1.003e+01       5.083e-01          -0.093          -0.039           0.995       3.089e-01          0.2883
 290       6.838e+00      -1.003e+01       5.309e-01          -0.042          -0.012           0.999       3.638e-01          0.1607
 291       7.226e+00      -1.003e+01       5.398e-01          -0.005           0.007           1.000       3.984e-01          0.0650
 292       7.639e+00      -1.003e+01       5.332e-01           0.036           0.025           0.999       4.107e-01         -0.0112
 293       8.051e+00      -1.003e+01       5.080e-01           0.087           0.047           0.995       4.002e-01         -0.0505
 294       8.440e+00      -1.004e+01       4.664e-01           0.128           0.063           0.990       3.669e-01         -0.0398
 295       8.782e+00      -1.004e+01       4.177e-01           0.155           0.072           0.985       3.116e-01         -0.0092
 296       9.058e+00      -1.004e+01       3.716e-01           0.176           0.079           0.981       2.375e-01          0.0160
 297       9.251e+00      -1.004e+01       3.353e-01           0.197           0.085           0.977       1.489e-01          0.0163
 298       9.350e+00      -1.004e+01       3.096e-01           0.387           0.139           0.912       5.420e-02          0.0542
Strip 12
 299       9.054e+00      -9.024e+00       2.683e-01           0.026          -0.022          -0.999       5.738e-02          0.2014
 300       8.946e+00      -9.024e+00       2.755e-01          -0.099          -0.059          -0.993       1.698e-01          0.2506
 301       8.736e+00      -9.024e+00       2.789e-01           0.036          -0.017          -0.999       2.705e-01          0.3211
 302       8.436e+00      -9.024e+00       2.469e-01           0.159           0.023          -0.987       3.609e-01          0.2369
 303       8.065e+00      -9.025e+00       1.762e-01           0.210           0.042          -0.977       4.316e-01          0.0229
 304       7.642e+00      -9.026e+00       9.222e-02           0.181           0.030          -0.983       4.702e-01         -0.2902
 305       7.194e+00      -9.026e+00       3.097e-02           0.090          -0.008          -0.996       4.779e-01         -0.5776
 306       6.746e+00      -9.026e+00       7.244e-03           0.014          -0.044          -0.999       4.625e-01         -0.7452
 307       6.323e+00      -9.026e+00       1.233e-02          -0.040          -0.070          -0.997       4.226e-01         -0.9053
 308       5.951e+00      -9.026e+00       3.702e-02          -0.096          -0.099          -0.990       3.594e-01         -1.1770
 309       5.652e+00      -9.026e+00       7.752e-02          -0.180          -0.145          -0.973       2.776e-01         -1.7553
 310       5.442e+00      -9.025e+00       1.358e-01          -0.380          -0.255          -0.889       1.893e-01         -2.9706
 311       5.334e+00      -9.024e+00       2.190e-01          -0.773          -0.467          -0.430       1.321e-01         -2.2886
 312       5.334e+00      -9.024e+00       3.166e-01          -0.779          -0.445           0.442       1.310e-01          0.1300
 313       5.442e+00      -9.023e+00       3.998e-01          -0.383          -0.204           0.901       1.876e-01          0.7191
 314       5.652e+00      -9.022e+00       4.574e-01          -0.176          -0.084           0.981       2.757e-01          0.4623
 315       5.951e+00      -9.022e+00       4.966e-01          -0.093          -0.039           0.995       3.580e-01          0.2793
 316       6.323e+00      -9.022e+00       5.211e-01          -0.042          -0.012           0.999       4.216e-01          0.1535
 317       6.746e+00      -9.022e+00       5.307e-01          -0.005           0.007           1.000       4.618e-01          0.0595
 318       7.194e+00      -9.022e+00       5.236e-01           0.036           0.025           0.999       4.760e-01         -0.0154
 319       7.642e+00      -9.022e+00       4.962e-01           0.087           0.047           0.995       4.639e-01         -0.0535
 320       8.065e+00      -9.023e+00       4.509e-01           0.128           0.063           0.990       4.253e-01         -0.0418
 321       8.436e+00      -9.023e+00       3.980e-01           0.155           0.072           0.985       3.612e-01         -0.0104
 322       8.736e+00      -9.023e+00       3.480e-01           0.176           0.079           0.981       2.753e-01          0.0154
 323       8.946e+00      -9.024e+00       3.085e-01           0.197           0.085           0.977       1.726e-01          0.0161
 324       9.054e+00      -9.024e+00       2.806e-01           0.387           0.139           0.912       6.283e-02          0.0545
Strip 13
 325       8.739e+00      -7.950e+00       2.364e-01           0.026          -0.022          -0.999       6.569e-02          0.2019
 326       8.622e+00      -7.949e+00       2.443e-01          -0.099          -0.059          -0.993       1.944e-01          0.2511
 327       8.395e+00      -7.949e+00       2.480e-01           0.036          -0.017          -0.999       3.097e-01          0.3217
 328       8.070e+00      -7.950e+00       2.133e-01           0.159           0.023          -0.987       4.132e-01          0.2381
 329       7.666e+00      -7.950e+00       1.365e-01           0.210           0.042          -0.977       4.941e-01          0.0258
 330       7.208e+00      -7.951e+00       4.544e-02           0.181           0.030          -0.983       5.383e-01         -0.2844
 331       6.722e+00      -7.951e+00      -2.100e-02           0.091          -0.008          -0.996       5.472e-01         -0.5681
 332       6.236e+00      -7.951e+00      -4.673e-02           0.014          -0.044          -0.999       5.295e-01         -0.7319
 333       5.777e+00      -7.951e+00      -4.122e-02          -0.040          -0.070          -0.997       4.839e-01         -0.8870
 334       5.374e+00      -7.951e+00      -1.443e-02          -0.096          -0.099          -0.990       4.116e-01         -1.1503
 335       5.049e+00      -7.951e+00       2.950e-02          -0.180          -0.145          -0.973       3.179e-01         -1.7104
 336       4.822e+00      -7.950e+00       9.277e-02          -0.380          -0.255          -0.889       2.168e-01         -2.8794
 337       4.704e+00      -7.950e+00       1.830e-01          -0.772          -0.467          -0.431       1.513e-01         -2.1830
 338       4.704e+00      -7.949e+00       2.889e-01          -0.779          -0.445           0.441       1.499e-01          0.1754
 339       4.822e+00      -7.949e+00       3.791e-01          -0.383          -0.204           0.901       2.147e-01          0.7137
 340       5.049e+00      -7.948e+00       4.416e-01          -0.176          -0.084           0.981       3.156e-01          0.4495
 341       5.374e+00      -7.948e+00       4.841e-01          -0.093          -0.039           0.995       4.098e-01          0.2686
 342       5.777e+00      -7.948e+00       5.107e-01          -0.042          -0.012           0.999       4.827e-01          0.1451
 343       6.236e+00      -7.948e+00       5.211e-01          -0.005           0.007           1.000       5.287e-01          0.0528
 344       6.722e+00      -7.948e+00       5.134e-01           0.036           0.025           0.999       5.450e-01         -0.0206
 345       7.208e+00      -7.948e+00       4.837e-01           0.087           0.047           0.995       5.312e-01         -0.0573
 346       7.666e+00      -7.948e+00       4.346e-01           0.128           0.063           0.990       4.870e-01         -0.0445
 347       8.070e+00      -7.949e+00       3.772e-01           0.155           0.072           0.985       4.136e-01         -0.0122
 348       8.395e+00      -7.949e+00       3.229e-01           0.176           0.079           0.981       3.152e-01          0.0144
 349       8.622e+00      -7.949e+00       2.800e-01           0.197           0.085           0.977       1.977e-01          0.0158
 350       8.739e+00      -7.949e+00       2.498e-01           0.386           0.139           0.912       7.195e-02          0.0548
Strip 14
 351       8.409e+00      -6.821e+00       2.029e-01           0.026          -0.022          -0.999       7.434e-02          0.2024
 352       8.282e+00      -6.821e+00       2.115e-01          -0.099          -0.059          -0.993       2.200e-01          0.2516
 353       8.036e+00      -6.821e+00       2.155e-01           0.036          -0.017          -0.999       3.504e-01          0.3224
 354       7.684e+00      -6.821e+00       1.779e-01           0.159           0.023          -0.987       4.675e-01          0.2394
 355       7.248e+00      -6.821e+00       9.483e-02           0.210           0.042          -0.977       5.590e-01          0.0289
 356       6.752e+00      -6.822e+00      -3.699e-03           0.181           0.030          -0.983       6.091e-01         -0.2780
 357       6.226e+00      -6.822e+00      -7.559e-02           0.091          -0.008          -0.996       6.192e-01         -0.5575
 358       5.700e+00      -6.822e+00      -1.034e-01           0.014          -0.044          -0.999       5.992e-01         -0.7170
 359       5.204e+00      -6.822e+00      -9.747e-02          -0.040          -0.070          -0.997       5.476e-01         -0.8664
 360       4.768e+00      -6.822e+00      -6.849e-02          -0.096          -0.099          -0.990       4.658e-01         -1.1202
 361       4.416e+00      -6.822e+00      -2.095e-02          -0.180          -0.145          -0.973       3.597e-01         -1.6599
 362       4.170e+00      -6.822e+00       4.751e-02          -0.380          -0.255          -0.889       2.454e-01         -2.7781
 363       4.043e+00      -6.821e+00       1.451e-01          -0.772          -0.467          -0.431       1.713e-01         -2.0661
 364       4.043e+00      -6.820e+00       2.597e-01          -0.780          -0.445           0.440       1.696e-01          0.2247
 365       4.170e+00      -6.820e+00       3.574e-01          -0.383          -0.204           0.901       2.429e-01          0.7065
 366       4.416e+00      -6.819e+00       4.249e-01          -0.176          -0.084           0.981       3.571e-01          0.4348
 367       4.768e+00      -6.819e+00       4.709e-01          -0.093          -0.039           0.995       4.637e-01          0.2566
 368       5.204e+00      -6.819e+00       4.997e-01          -0.042          -0.012           0.999       5.462e-01          0.1356
 369       5.700e+00      -6.819e+00       5.110e-01          -0.005           0.007           1.000       5.983e-01          0.0453
 370       6.226e+00      -6.819e+00       5.027e-01           0.036           0.025           0.999       6.167e-01         -0.0265
 371       6.752e+00      -6.819e+00       4.705e-01           0.087           0.047           0.995       6.011e-01         -0.0618
 372       7.248e+00      -6.820e+00       4.174e-01           0.128           0.063           0.990       5.511e-01         -0.0477
 373       7.684e+00      -6.820e+00       3.553e-01           0.155           0.072           0.985       4.681e-01         -0.0143
 374       8.036e+00      -6.820e+00       2.965e-01           0.176           0.079           0.981       3.567e-01          0.0131
 375       8.282e+00      -6.820e+00       2.501e-01           0.197           0.085           0.977       2.237e-01          0.0153
 376       8.409e+00      -6.821e+00       2.174e-01           0.386           0.139           0.912       8.143e-02          0.0550
Strip 15
 377       8.065e+00      -5.645e+00       1.681e-01           0.026          -0.022          -0.999       8.317e-02          0.2026
 378       7.928e+00      -5.645e+00       1.773e-01          -0.099          -0.059          -0.993       2.461e-01          0.2518
 379       7.662e+00      -5.645e+00       1.816e-01           0.036          -0.017          -0.999       3.920e-01          0.3228
 380       7.283e+00      -5.645e+00       1.411e-01           0.159           0.023          -0.987       5.231e-01          0.2406
 381       6.812e+00      -5.646e+00       5.145e-02           0.210           0.042          -0.977       6.254e-01          0.0319
 382       6.278e+00      -5.646e+00      -5.487e-02           0.181           0.030          -0.983       6.814e-01         -0.2713
 383       5.710e+00      -5.646e+00      -1.324e-01           0.091          -0.008          -0.996       6.927e-01         -0.5461
 384       5.142e+00      -5.647e+00      -1.625e-01           0.014          -0.044          -0.999       6.704e-01         -0.7007
 385       4.607e+00      -5.647e+00      -1.560e-01          -0.040          -0.070          -0.997       6.127e-01         -0.8436
 386       4.136e+00      -5.646e+00      -1.248e-01          -0.096          -0.099          -0.990       5.211e-01         -1.0862
 387       3.757e+00      -5.646e+00      -7.348e-02          -0.180          -0.145          -0.973       4.025e-01         -1.6027
 388       3.491e+00      -5.646e+00       3.894e-04          -0.380          -0.255          -0.889       2.747e-01         -2.6640
 389       3.354e+00      -5.645e+00       1.057e-01          -0.772          -0.467          -0.432       1.917e-01         -1.9359
 390       3.354e+00      -5.645e+00       2.294e-01          -0.780          -0.445           0.440       1.897e-01          0.2783
 391       3.491e+00      -5.645e+00       3.347e-01          -0.384          -0.204           0.901       2.717e-01          0.6972
 392       3.757e+00      -5.644e+00       4.076e-01          -0.176          -0.084           0.981       3.995e-01          0.4181
 393       4.136e+00      -5.644e+00       4.572e-01          -0.093          -0.039           0.995       5.188e-01          0.2433
 394       4.607e+00      -5.644e+00       4.883e-01          -0.042          -0.012           0.999       6.111e-01          0.1252
 395       5.142e+00      -5.644e+00       5.005e-01          -0.005           0.007           1.000       6.694e-01          0.0372
 396       5.710e+00      -5.644e+00       4.915e-01           0.036           0.025           0.999       6.900e-01         -0.0329
 397       6.278e+00      -5.644e+00       4.568e-01           0.087           0.047           0.995       6.726e-01         -0.0666
 398       6.812e+00      -5.644e+00       3.994e-01           0.128           0.063           0.990       6.166e-01         -0.0512
 399       7.283e+00      -5.645e+00       3.324e-01           0.155           0.072           0.985       5.237e-01         -0.0168
 400       7.662e+00      -5.645e+00       2.691e-01           0.176           0.079           0.981       3.991e-01          0.0116
 401       7.928e+00      -5.645e+00       2.190e-01           0.197           0.085           0.977       2.503e-01          0.0146
 402       8.065e+00      -5.645e+00       1.837e-01           0.386           0.139           0.912       9.111e-02          0.0549
Strip 16
 403       7.710e+00      -4.431e+00       1.321e-01           0.026          -0.022          -0.999       9.203e-02          0.2024
 404       7.563e+00      -4.431e+00       1.420e-01          -0.099          -0.059          -0.993       2.723e-01          0.2516
 405       7.277e+00      -4.431e+00       1.467e-01           0.036          -0.017          -0.999       4.338e-01          0.3226
 406       6.869e+00      -4.431e+00       1.031e-01           0.159           0.023          -0.987       5.788e-01          0.2410
 407       6.362e+00      -4.432e+00       6.638e-03           0.210           0.042          -0.977       6.919e-01          0.0343
 408       5.787e+00      -4.432e+00      -1.077e-01           0.181           0.030          -0.983       7.539e-01         -0.2653
 409       5.176e+00      -4.432e+00      -1.911e-01           0.091          -0.008          -0.996       7.665e-01         -0.5348
 410       4.566e+00      -4.432e+00      -2.235e-01           0.014          -0.044          -0.999       7.418e-01         -0.6833
 411       3.991e+00      -4.432e+00      -2.165e-01          -0.040          -0.070          -0.997       6.780e-01         -0.8180
 412       3.484e+00      -4.432e+00      -1.829e-01          -0.096          -0.099          -0.990       5.767e-01         -1.0470
 413       3.076e+00      -4.432e+00      -1.277e-01          -0.180          -0.145          -0.973       4.455e-01         -1.5356
 414       2.790e+00      -4.432e+00      -4.828e-02          -0.379          -0.255          -0.889       3.040e-01         -2.5313
 415       2.643e+00      -4.431e+00       6.504e-02          -0.772          -0.467          -0.432       2.122e-01         -1.7867
 416       2.643e+00      -4.431e+00       1.980e-01          -0.780          -0.446           0.440       2.099e-01          0.3377
 417       2.790e+00      -4.431e+00       3.113e-01          -0.384          -0.204           0.901       3.006e-01          0.6850
 418       3.076e+00      -4.430e+00       3.897e-01          -0.176          -0.084           0.981       4.420e-01          0.3995
 419       3.484e+00      -4.430e+00       4.431e-01          -0.093          -0.039           0.995       5.740e-01          0.2292
 420       3.991e+00      -4.430e+00       4.766e-01          -0.042          -0.012           0.999       6.762e-01          0.1146
 421       4.566e+00      -4.430e+00       4.896e-01          -0.005           0.007           1.000       7.407e-01          0.0292
 422       5.176e+00      -4.430e+00       4.799e-01           0.036           0.025           0.999       7.636e-01         -0.0392
 423       5.787e+00      -4.430e+00       4.426e-01           0.087           0.047           0.995       7.442e-01         -0.0715
 424       6.362e+00      -4.430e+00       3.809e-01           0.128           0.063           0.990       6.824e-01         -0.0549
 425       6.869e+00      -4.431e+00       3.089e-01           0.155           0.072           0.985       5.795e-01         -0.0195
 426       7.277e+00      -4.431e+00       2.407e-01           0.176           0.079           0.981       4.417e-01          0.0098
 427       7.563e+00      -4.431e+00       1.869e-01           0.197           0.085           0.977       2.770e-01          0.0134
 428       7.710e+00      -4.431e+00       1.489e-01           0.386           0.139           0.912       1.008e-01          0.0544
Strip 17
 429       7.346e+00      -3.187e+00       9.521e-02           0.026          -0.022          -0.999       1.007e-01          0.2010
 430       7.188e+00      -3.187e+00       1.059e-01          -0.099          -0.059          -0.993       2.981e-01          0.2501
 431       6.881e+00      -3.187e+00       1.108e-01           0.036          -0.017          -0.999       4.749e-01          0.3210
 432       6.444e+00      -3.187e+00       6.407e-02           0.159           0.023          -0.987       6.335e-01          0.2396
 433       5.901e+00      -3.187e+00      -3.929e-02           0.210           0.042          -0.977       7.574e-01          0.0341
 434       5.285e+00      -3.187e+00      -1.619e-01           0.181           0.030          -0.983       8.252e-01         -0.2620
 435       4.630e+00      -3.188e+00      -2.513e-01           0.091          -0.008          -0.996       8.390e-01         -0.5253
 436       3.975e+00      -3.188e+00      -2.860e-01           0.014          -0.044          -0.999       8.121e-01         -0.6653
 437       3.359e+00      -3.188e+00      -2.785e-01          -0.040          -0.070          -0.997       7.422e-01         -0.7882
 438       2.816e+00      -3.188e+00      -2.425e-01          -0.096          -0.099          -0.990       6.314e-01         -0.9986
 439       2.378e+00      -3.188e+00      -1.833e-01          -0.180          -0.145          -0.973       4.877e-01         -1.4512
 440       2.072e+00      -3.187e+00      -9.816e-02          -0.379          -0.255          -0.890       3.329e-01         -2.3656
 441       1.914e+00      -3.187e+00       2.332e-02          -0.772          -0.467          -0.433       2.323e-01         -1.6052
 442       1.914e+00      -3.187e+00       1.659e-01          -0.780          -0.446           0.439       2.297e-01          0.4071
 443       2.072e+00      -3.187e+00       2.873e-01          -0.384          -0.204           0.901       3.290e-01          0.6694
 444       2.378e+00      -3.186e+00       3.714e-01          -0.176          -0.084           0.981       4.838e-01          0.3790
 445       2.816e+00      -3.186e+00       4.286e-01          -0.093          -0.039           0.995       6.284e-01          0.2151
 446       3.359e+00      -3.186e+00       4.645e-01          -0.042          -0.012           0.999       7.402e-01          0.1050
 447       3.975e+00      -3.186e+00       4.785e-01          -0.005           0.007           1.000       8.109e-01          0.0223
 448       4.630e+00      -3.186e+00       4.681e-01           0.036           0.025           0.999       8.359e-01         -0.0445
 449       5.285e+00      -3.186e+00       4.281e-01           0.087           0.047           0.995       8.148e-01         -0.0759
 450       5.901e+00      -3.186e+00       3.620e-01           0.128           0.063           0.990       7.471e-01         -0.0584
 451       6.444e+00      -3.187e+00       2.847e-01           0.155           0.072           0.985       6.345e-01         -0.0224
 452       6.881e+00      -3.187e+00       2.116e-01           0.176           0.079           0.981       4.835e-01          0.0075
 453       7.188e+00      -3.187e+00       1.540e-01           0.197           0.085           0.977       3.032e-01          0.0115
 454       7.346e+00      -3.187e+00       1.132e-01           0.386           0.139           0.912       1.104e-01          0.0530
Strip 18
 455       6.975e+00      -1.921e+00       5.767e-02           0.026          -0.022          -0.999       1.091e-01          0.1976
 456       6.807e+00      -1.921e+00       6.905e-02          -0.099          -0.059          -0.993       3.230e-01          0.2462
 457       6.479e+00      -1.921e+00       7.436e-02           0.036          -0.017          -0.999       5.144e-01          0.3163
 458       6.012e+00      -1.921e+00       2.441e-02           0.159           0.023          -0.987       6.862e-01          0.2334
 459       5.432e+00      -1.921e+00      -8.602e-02           0.210           0.042          -0.977       8.204e-01          0.0265
 460       4.773e+00      -1.921e+00      -2.170e-01           0.181           0.030          -0.983       8.938e-01         -0.2675
 461       4.074e+00      -1.921e+00      -3.125e-01           0.091          -0.008          -0.996       9.088e-01         -0.5220
 462       3.374e+00      -1.921e+00      -3.496e-01           0.014          -0.044          -0.999       8.796e-01         -0.6473
 463       2.716e+00      -1.921e+00      -3.416e-01          -0.040          -0.070          -0.997       8.040e-01         -0.7497
 464       2.136e+00      -1.921e+00      -3.031e-01          -0.096          -0.099          -0.990       6.839e-01         -0.9304
 465       1.668e+00      -1.921e+00      -2.399e-01          -0.180          -0.145          -0.973       5.283e-01         -1.3298
 466       1.341e+00      -1.921e+00      -1.489e-01          -0.379          -0.255          -0.890       3.606e-01         -2.1323
 467       1.172e+00      -1.921e+00      -1.913e-02          -0.771          -0.466          -0.433       2.517e-01         -1.3589
 468       1.172e+00      -1.921e+00       1.332e-01          -0.780          -0.446           0.439       2.488e-01          0.4997
 469       1.341e+00      -1.921e+00       2.629e-01          -0.384          -0.204           0.901       3.563e-01          0.6515
 470       1.668e+00      -1.921e+00       3.528e-01          -0.176          -0.084           0.981       5.240e-01          0.3590
 471       2.136e+00      -1.921e+00       4.139e-01          -0.093          -0.039           0.995       6.806e-01          0.2048
 472       2.716e+00      -1.920e+00       4.522e-01          -0.042          -0.012           0.999       8.018e-01          0.1006
 473       3.374e+00      -1.920e+00       4.672e-01          -0.005           0.007           1.000       8.783e-01          0.0202
 474       4.074e+00      -1.920e+00       4.561e-01           0.036           0.025           0.999       9.054e-01         -0.0466
 475       4.773e+00      -1.921e+00       4.133e-01           0.087           0.047           0.995       8.826e-01         -0.0789
 476       5.432e+00      -1.921e+00       3.427e-01           0.128           0.063           0.990       8.092e-01         -0.0621
 477       6.012e+00      -1.921e+00       2.602e-01           0.155           0.072           0.985       6.873e-01         -0.0261
 478       6.479e+00      -1.921e+00       1.821e-01           0.176           0.079           0.981       5.238e-01          0.0041
 479       6.807e+00      -1.921e+00       1.204e-01           0.197           0.085           0.977       3.285e-01          0.0081
 480       6.975e+00      -1.921e+00       7.690e-02           0.386           0.139           0.912       1.196e-01          0.0497
Strip 19
 481       6.601e+00      -6.418e-01       1.975e-02           0.026          -0.022          -0.999       1.170e-01         -0.8365
 482       6.421e+00      -6.418e-01       3.187e-02          -0.099          -0.059          -0.993       3.462e-01         -0.8360
 483       6.073e+00      -6.418e-01       3.751e-02           0.036          -0.017          -0.999       5.514e-01         -0.8813
 484       5.575e+00      -6.418e-01      -1.566e-02           0.159           0.023          -0.987       7.356e-01         -0.9734
 485       4.958e+00      -6.418e-01      -1.332e-01           0.210           0.042          -0.977       8.794e-01         -0.9855
 486       4.257e+00      -6.419e-01      -2.727e-01           0.181           0.030          -0.983       9.581e-01         -0.9309
 487       3.512e+00      -6.419e-01      -3.744e-01           0.091          -0.008          -0.996       9.742e-01         -0.8528
 488       2.767e+00      -6.419e-01      -4.138e-01           0.014          -0.044          -0.999       9.429e-01         -0.7603
 489       2.066e+00      -6.419e-01      -4.054e-01          -0.040          -0.070          -0.997       8.618e-01         -0.7220
 490       1.448e+00      -6.419e-01      -3.644e-01          -0.096          -0.099          -0.990       7.332e-01         -0.8018
 491       9.511e-01      -6.419e-01      -2.971e-01          -0.180          -0.145          -0.973       5.664e-01         -1.1098
 492       6.024e-01      -6.419e-01      -2.002e-01          -0.379          -0.255          -0.890       3.866e-01         -1.7867
 493       4.229e-01      -6.418e-01      -6.202e-02          -0.771          -0.466          -0.433       2.698e-01         -0.9110
 494       4.229e-01      -6.417e-01       1.001e-01          -0.780          -0.446           0.439       2.667e-01          0.9393
 495       6.024e-01      -6.417e-01       2.383e-01          -0.384          -0.204           0.901       3.819e-01          0.5689
 496       9.511e-01      -6.417e-01       3.339e-01          -0.176          -0.084           0.981       5.617e-01          0.0496
 497       1.448e+00      -6.416e-01       3.990e-01          -0.093          -0.039           0.995       7.296e-01         -0.2755
 498       2.066e+00      -6.416e-01       4.398e-01          -0.042          -0.012           0.999       8.595e-01         -0.5244
 499       2.767e+00      -6.416e-01       4.557e-01          -0.005           0.007           1.000       9.415e-01         -0.7134
 500       3.512e+00      -6.416e-01       4.439e-01           0.036           0.025           0.999       9.706e-01         -0.8386
 501       4.257e+00      -6.416e-01       3.984e-01           0.087           0.047           0.995       9.461e-01         -0.8598
 502       4.958e+00      -6.417e-01       3.232e-01           0.128           0.063           0.990       8.675e-01         -0.7758
 503       5.575e+00      -6.417e-01       2.353e-01           0.155           0.072           0.985       7.368e-01         -0.6620
 504       6.073e+00      -6.417e-01       1.522e-01           0.176           0.079           0.981       5.615e-01         -0.5729
 505       6.421e+00      -6.417e-01       8.657e-02           0.197           0.085           0.977       3.521e-01         -0.5426
 506       6.601e+00      -6.418e-01       4.022e-02           0.386           0.139           0.912       1.282e-01         -0.4504
Strip 20
 507       6.601e+00       6.418e-01       1.975e-02           0.026           0.022          -0.999       1.170e-01          0.1912
 508       6.421e+00       6.418e-01       3.187e-02          -0.099           0.059          -0.993       3.462e-01          0.2384
 509       6.073e+00       6.418e-01       3.751e-02           0.036           0.017          -0.999       5.514e-01          0.3044
 510       5.575e+00       6.418e-01      -1.566e-02           0.159          -0.023          -0.987       7.356e-01          0.2111
 511       4.958e+00       6.418e-01      -1.332e-01           0.210          -0.042          -0.977       8.794e-01         -0.0086
 512       4.257e+00       6.419e-01      -2.727e-01           0.181          -0.030          -0.983       9.581e-01         -0.3029
 513       3.512e+00       6.419e-01      -3.744e-01           0.091           0.008          -0.996       9.742e-01         -0.5363
 514       2.767e+00       6.419e-01      -4.138e-01           0.014           0.044          -0.999       9.429e-01         -0.6283
 515       2.066e+00       6.419e-01      -4.054e-01          -0.040           0.070          -0.997       8.618e-01         -0.6899
 516       1.448e+00       6.419e-01      -3.644e-01          -0.096           0.099          -0.990       7.332e-01         -0.8105
 517       9.511e-01       6.419e-01      -2.971e-01          -0.180           0.145          -0.973       5.664e-01         -1.0823
 518       6.024e-01       6.419e-01      -2.002e-01          -0.379           0.255          -0.890       3.866e-01         -1.6842
 519       4.229e-01       6.418e-01      -6.202e-02          -0.771           0.466          -0.433       2.698e-01         -0.9459
 520       4.229e-01       6.417e-01       1.001e-01          -0.780           0.446           0.439       2.667e-01          0.6118
 521       6.024e-01       6.417e-01       2.383e-01          -0.384           0.204           0.901       3.819e-01          0.6345
 522       9.511e-01       6.417e-01       3.339e-01          -0.176           0.084           0.981       5.617e-01          0.3596
 523       1.448e+00       6.416e-01       3.990e-01          -0.093           0.039           0.995       7.296e-01          0.2183
 524       2.066e+00       6.416e-01       4.398e-01          -0.042           0.012           0.999       8.595e-01          0.1178
 525       2.767e+00       6.416e-01       4.557e-01          -0.005          -0.007           1.000       9.415e-01          0.0348
 526       3.512e+00       6.416e-01       4.439e-01           0.036          -0.025           0.999       9.706e-01         -0.0396
 527       4.257e+00       6.416e-01       3.984e-01           0.087          -0.047           0.995       9.461e-01         -0.0816
 528       4.958e+00       6.417e-01       3.232e-01           0.128          -0.063           0.990       8.675e-01         -0.0716
 529       5.575e+00       6.417e-01       2.353e-01           0.155          -0.072           0.985       7.368e-01         -0.0366
 530       6.073e+00       6.417e-01       1.522e-01           0.176          -0.079           0.981       5.615e-01         -0.0044
 531       6.421e+00       6.417e-01       8.657e-02           0.197          -0.085           0.977       3.521e-01          0.0008
 532       6.601e+00       6.418e-01       4.022e-02           0.386          -0.139           0.912       1.282e-01          0.0429
Strip 21
 533       6.975e+00       1.921e+00       5.767e-02           0.026           0.022          -0.999       1.091e-01          0.1976
 534       6.807e+00       1.921e+00       6.905e-02          -0.099           0.059          -0.993       3.230e-01          0.2462
 535       6.479e+00       1.921e+00       7.436e-02           0.036           0.017          -0.999       5.144e-01          0.3163
 536       6.012e+00       1.921e+00       2.441e-02           0.159          -0.023          -0.987       6.862e-01          0.2334
 537       5.432e+00       1.921e+00      -8.602e-02           0.210          -0.042          -0.977       8.204e-01          0.0265
 538       4.773e+00       1.921e+00      -2.170e-01           0.181          -0.030          -0.983       8.938e-01         -0.2675
 539       4.074e+00       1.921e+00      -3.125e-01           0.091           0.008          -0.996       9.088e-01         -0.5220
 540       3.374e+00       1.921e+00      -3.496e-01           0.014           0.044          -0.999       8.796e-01         -0.6473
 541       2.716e+00       1.921e+00      -3.416e-01          -0.040           0.070          -0.997       8.040e-01         -0.7497
 542       2.136e+00       1.921e+00      -3.031e-01          -0.096           0.099          -0.990       6.839e-01         -0.9304
 543       1.668e+00       1.921e+00      -2.399e-01          -0.180           0.145          -0.973       5.283e-01         -1.3298
 544       1.341e+00       1.921e+00      -1.489e-01          -0.379           0.255          -0.890       3.606e-01         -2.1323
 545       1.172e+00       1.921e+00      -1.913e-02          -0.771           0.466          -0.433       2.517e-01         -1.3589
 546       1.172e+00       1.921e+00       1.332e-01          -0.780           0.446           0.439       2.488e-01          0.4997
 547       1.341e+00       1.921e+00       2.629e-01          -0.384           0.204           0.901       3.563e-01          0.6515
 548       1.668e+00       1.921e+00       3.528e-01          -0.176           0.084           0.981       5.240e-01          0.3590
 549       2.136e+00       1.921e+00       4.139e-01          -0.093           0.039           0.995       6.806e-01          0.2048
 550       2.716e+00       1.920e+00       4.522e-01          -0.042           0.012           0.999       8.018e-01          0.1006
 551       3.374e+00       1.920e+00       4.672e-01          -0.005          -0.007           1.000       8.783e-01          0.0202
 552       4.074e+00       1.920e+00       4.561e-01           0.036          -0.025           0.999       9.054e-01         -0.0466
 553       4.773e+00       1.921e+00       4.133e-01           0.087          -0.047           0.995       8.826e-01         -0.0789
 554       5.432e+00       1.921e+00       3.427e-01           0.128          -0.063           0.990       8.092e-01         -0.0621
 555       6.012e+00       1.921e+00       2.602e-01           0.155          -0.072           0.985       6.873e-01         -0.0261
 556       6.479e+00       1.921e+00       1.821e-01           0.176          -0.079           0.981       5.238e-01          0.0041
 557       6.807e+00       1.921e+00       1.204e-01           0.197          -0.085           0.977       3.285e-01          0.0081
 558       6.975e+00       1.921e+00       7.690e-02           0.386          -0.139           0.912       1.196e-01          0.0497
Strip 22
 559       7.346e+00       3.187e+00       9.521e-02           0.026           0.022          -0.999       1.007e-01          0.2010
 560       7.188e+00       3.187e+00       1.059e-01          -0.099           0.059          -0.993       2.981e-01          0.2501
 561       6.881e+00       3.187e+00       1.108e-01           0.036           0.017          -0.999       4.749e-01          0.3210
 562       6.444e+00       3.187e+00       6.407e-02           0.159          -0.023          -0.987       6.335e-01          0.2396
 563       5.901e+00       3.187e+00      -3.929e-02           0.210          -0.042          -0.977       7.574e-01          0.0341
 564       5.285e+00       3.187e+00      -1.619e-01           0.181          -0.030          -0.983       8.252e-01         -0.2620
 565       4.630e+00       3.188e+00      -2.513e-01           0.091           0.008          -0.996       8.390e-01         -0.5253
 566       3.975e+00       3.188e+00      -2.860e-01           0.014           0.044          -0.999       8.121e-01         -0.6653
 567       3.359e+00       3.188e+00      -2.785e-01          -0.040           0.070          -0.997       7.422e-01         -0.7882
[...]
 852       9.084e+00       1.396e+01       2.548e-01           0.014           0.044          -0.999       1.527e-01         -0.7436
 853       8.826e+00       1.396e+01       2.579e-01          -0.040           0.070          -0.997       1.394e-01         -0.9191
 854       8.599e+00       1.395e+01       2.730e-01          -0.096           0.099          -0.990       1.185e-01         -1.2162
 855       8.416e+00       1.395e+01       2.977e-01          -0.181           0.145          -0.973       9.149e-02         -1.8450
 856       8.287e+00       1.395e+01       3.334e-01          -0.381           0.255          -0.889       6.233e-02         -3.1863
 857       8.221e+00       1.395e+01       3.842e-01          -0.775           0.468          -0.425       4.350e-02         -2.5409
 858       8.221e+00       1.395e+01       4.439e-01          -0.777           0.444           0.446       4.334e-02          0.0216
 859       8.287e+00       1.395e+01       4.948e-01          -0.382           0.203           0.901       6.207e-02          0.7191
 860       8.416e+00       1.395e+01       5.300e-01          -0.176           0.084           0.981       9.110e-02          0.4769
 861       8.599e+00       1.395e+01       5.539e-01          -0.093           0.039           0.995       1.182e-01          0.2844
 862       8.826e+00       1.395e+01       5.689e-01          -0.042           0.012           0.999       1.392e-01          0.1491
 863       9.084e+00       1.395e+01       5.748e-01          -0.005          -0.007           1.000       1.524e-01          0.0479
 864       9.359e+00       1.395e+01       5.704e-01           0.036          -0.025           0.999       1.571e-01         -0.0313
 865       9.633e+00       1.395e+01       5.537e-01           0.087          -0.047           0.995       1.530e-01         -0.0711
 866       9.891e+00       1.395e+01       5.260e-01           0.128          -0.063           0.990       1.403e-01         -0.0585
 867       1.012e+01       1.395e+01       4.937e-01           0.155          -0.072           0.985       1.191e-01         -0.0242
 868       1.030e+01       1.395e+01       4.631e-01           0.176          -0.079           0.981       9.078e-02          0.0050
 869       1.043e+01       1.395e+01       4.389e-01           0.198          -0.085           0.977       5.693e-02          0.0098
 870       1.050e+01       1.395e+01       4.219e-01           0.387          -0.139           0.911       2.071e-02          0.0491
Strip 34
 871       1.065e+01       1.447e+01       4.296e-01           0.026           0.022          -0.999       1.463e-02          0.1986
 872       1.059e+01       1.447e+01       4.338e-01          -0.099           0.059          -0.993       4.327e-02          0.2549
 873       1.047e+01       1.447e+01       4.357e-01           0.036           0.017          -0.999       6.898e-02          0.3358
 874       1.029e+01       1.447e+01       4.175e-01           0.159          -0.023          -0.987       9.211e-02          0.2606
 875       1.008e+01       1.447e+01       3.771e-01           0.210          -0.042          -0.977       1.102e-01          0.0555
 876       9.841e+00       1.447e+01       3.292e-01           0.180          -0.030          -0.983       1.200e-01         -0.2496
 877       9.585e+00       1.447e+01       2.942e-01           0.090           0.008          -0.996       1.219e-01         -0.5334
 878       9.329e+00       1.447e+01       2.807e-01           0.014           0.044          -0.999       1.179e-01         -0.7060
 879       9.088e+00       1.447e+01       2.836e-01          -0.040           0.070          -0.997       1.077e-01         -0.8796
 880       8.876e+00       1.447e+01       2.977e-01          -0.096           0.099          -0.990       9.159e-02         -1.1737
 881       8.705e+00       1.447e+01       3.208e-01          -0.181           0.145          -0.973       7.067e-02         -1.7921
 882       8.585e+00       1.447e+01       3.541e-01          -0.381           0.256          -0.889       4.814e-02         -3.1029
 883       8.523e+00       1.447e+01       4.015e-01          -0.775           0.468          -0.425       3.359e-02         -2.4472
 884       8.523e+00       1.447e+01       4.572e-01          -0.777           0.444           0.447       3.350e-02          0.0617
 885       8.585e+00       1.447e+01       5.047e-01          -0.382           0.203           0.902       4.798e-02          0.7081
 886       8.705e+00       1.446e+01       5.376e-01          -0.176           0.084           0.981       7.041e-02          0.4539
 887       8.876e+00       1.446e+01       5.599e-01          -0.093           0.039           0.995       9.135e-02          0.2586
 888       9.088e+00       1.446e+01       5.739e-01          -0.042           0.012           0.999       1.075e-01          0.1222
 889       9.329e+00       1.446e+01       5.794e-01          -0.005          -0.007           1.000       1.178e-01          0.0218
 890       9.585e+00       1.446e+01       5.753e-01           0.036          -0.025           0.999       1.213e-01         -0.0545
 891       9.841e+00       1.446e+01       5.597e-01           0.087          -0.047           0.995       1.182e-01         -0.0905
 892       1.008e+01       1.447e+01       5.339e-01           0.128          -0.063           0.990       1.084e-01         -0.0742
 893       1.029e+01       1.447e+01       5.037e-01           0.155          -0.072           0.985       9.203e-02         -0.0366
 894       1.047e+01       1.447e+01       4.751e-01           0.176          -0.079           0.981       7.013e-02         -0.0047
 895       1.059e+01       1.447e+01       4.526e-01           0.198          -0.085           0.977       4.398e-02          0.0029
 896       1.065e+01       1.447e+01       4.367e-01           0.387          -0.139           0.911       1.600e-02          0.0428
Strip 35
 897       1.077e+01       1.488e+01       4.420e-01           0.026           0.022          -0.999       1.083e-02          0.1775
 898       1.071e+01       1.488e+01       4.459e-01          -0.099           0.059          -0.993       3.201e-02          0.2401
 899       1.060e+01       1.488e+01       4.477e-01           0.036           0.017          -0.999       5.103e-02          0.3305
 900       1.044e+01       1.488e+01       4.305e-01           0.159          -0.023          -0.987       6.815e-02          0.2644
 901       1.024e+01       1.489e+01       3.925e-01           0.210          -0.042          -0.977       8.152e-02          0.0707
 902       1.001e+01       1.489e+01       3.473e-01           0.180          -0.030          -0.983       8.881e-02         -0.2184
 903       9.768e+00       1.489e+01       3.144e-01           0.090           0.008          -0.996       9.022e-02         -0.4846
 904       9.527e+00       1.489e+01       3.016e-01           0.014           0.044          -0.999       8.726e-02         -0.6442
 905       9.300e+00       1.489e+01       3.044e-01          -0.040           0.070          -0.997       7.970e-02         -0.8103
 906       9.100e+00       1.489e+01       3.176e-01          -0.096           0.099          -0.990       6.775e-02         -1.0971
 907       8.938e+00       1.489e+01       3.394e-01          -0.181           0.145          -0.973       5.227e-02         -1.6958
 908       8.825e+00       1.489e+01       3.708e-01          -0.381           0.256          -0.888       3.560e-02         -2.9497
 909       8.767e+00       1.488e+01       4.155e-01          -0.775           0.468          -0.424       2.484e-02         -2.2794
 910       8.767e+00       1.488e+01       4.680e-01          -0.776           0.443           0.448       2.480e-02          0.1273
 911       8.825e+00       1.488e+01       5.127e-01          -0.382           0.203           0.902       3.551e-02          0.6829
 912       8.938e+00       1.488e+01       5.437e-01          -0.176           0.084           0.981       5.210e-02          0.4082
 913       9.100e+00       1.488e+01       5.648e-01          -0.093           0.039           0.995       6.759e-02          0.2094
 914       9.300e+00       1.488e+01       5.780e-01          -0.042           0.012           0.999       7.956e-02          0.0746
 915       9.527e+00       1.488e+01       5.831e-01          -0.005          -0.007           1.000       8.712e-02         -0.0193
 916       9.768e+00       1.488e+01       5.793e-01           0.036          -0.025           0.999       8.977e-02         -0.0871
 917       1.001e+01       1.488e+01       5.646e-01           0.087          -0.047           0.995       8.746e-02         -0.1157
 918       1.024e+01       1.488e+01       5.402e-01           0.128          -0.063           0.990       8.017e-02         -0.0957
 919       1.044e+01       1.488e+01       5.118e-01           0.156          -0.072           0.985       6.808e-02         -0.0563
 920       1.060e+01       1.488e+01       4.849e-01           0.176          -0.079           0.981       5.188e-02         -0.0232
 921       1.071e+01       1.488e+01       4.636e-01           0.198          -0.085           0.977       3.253e-02         -0.0150
 922       1.077e+01       1.488e+01       4.486e-01           0.387          -0.139           0.911       1.183e-02          0.0233
Strip 36
 923       1.086e+01       1.520e+01       4.513e-01           0.026           0.022          -0.999       7.426e-03          0.0986
 924       1.081e+01       1.520e+01       4.551e-01          -0.099           0.059          -0.993       2.196e-02          0.1715
 925       1.070e+01       1.520e+01       4.568e-01           0.036           0.017          -0.999       3.501e-02          0.2780
 926       1.054e+01       1.520e+01       4.404e-01           0.159          -0.023          -0.987       4.675e-02          0.2264
 927       1.035e+01       1.520e+01       4.041e-01           0.210          -0.042          -0.977       5.593e-02          0.0539
 928       1.014e+01       1.520e+01       3.610e-01           0.180          -0.030          -0.983       6.093e-02         -0.2040
 929       9.906e+00       1.520e+01       3.296e-01           0.090           0.008          -0.996       6.190e-02         -0.4364
 930       9.676e+00       1.520e+01       3.174e-01           0.014           0.044          -0.999       5.986e-02         -0.5656
 931       9.460e+00       1.520e+01       3.201e-01          -0.040           0.070          -0.997       5.467e-02         -0.7057
 932       9.269e+00       1.520e+01       3.327e-01          -0.097           0.099          -0.990       4.647e-02         -0.9715
 933       9.115e+00       1.520e+01       3.535e-01          -0.181           0.145          -0.973       3.585e-02         -1.5365
 934       9.007e+00       1.520e+01       3.834e-01          -0.381           0.256          -0.888       2.441e-02         -2.7038
 935       8.952e+00       1.520e+01       4.261e-01          -0.776           0.469          -0.423       1.703e-02         -2.0249
 936       8.952e+00       1.520e+01       4.761e-01          -0.776           0.443           0.449       1.702e-02          0.2051
 937       9.007e+00       1.520e+01       5.188e-01          -0.382           0.203           0.902       2.437e-02          0.6177
 938       9.115e+00       1.520e+01       5.483e-01          -0.175           0.084           0.981       3.574e-02          0.3141
 939       9.269e+00       1.520e+01       5.684e-01          -0.093           0.039           0.995       4.637e-02          0.1198
 940       9.460e+00       1.520e+01       5.810e-01          -0.042           0.012           0.999       5.458e-02          0.0013
 941       9.676e+00       1.520e+01       5.859e-01          -0.005          -0.007           1.000       5.976e-02         -0.0738
 942       9.906e+00       1.520e+01       5.823e-01           0.036          -0.025           0.999       6.158e-02         -0.1271
 943       1.014e+01       1.520e+01       5.683e-01           0.087          -0.047           0.995       5.999e-02         -0.1490
 944       1.035e+01       1.520e+01       5.450e-01           0.128          -0.063           0.990       5.499e-02         -0.1308
 945       1.054e+01       1.520e+01       5.179e-01           0.156          -0.072           0.985       4.670e-02         -0.0965
 946       1.070e+01       1.520e+01       4.922e-01           0.176          -0.079           0.981       3.559e-02         -0.0681
 947       1.081e+01       1.520e+01       4.720e-01           0.198          -0.085           0.977       2.232e-02         -0.0667
 948       1.086e+01       1.520e+01       4.576e-01           0.387          -0.139           0.911       8.114e-03         -0.0378
Strip 37
 949       1.092e+01       1.541e+01       4.576e-01           0.026           0.022          -0.999       4.331e-03         -0.2024
 950       1.087e+01       1.541e+01       4.612e-01          -0.099           0.059          -0.993       1.280e-02         -0.1210
 951       1.076e+01       1.541e+01       4.629e-01           0.036           0.017          -0.999       2.042e-02          0.0106
 952       1.062e+01       1.541e+01       4.470e-01           0.159          -0.023          -0.987       2.727e-02          0.0078
 953       1.043e+01       1.541e+01       4.119e-01           0.210          -0.042          -0.977       3.262e-02         -0.0763
 954       1.022e+01       1.541e+01       3.702e-01           0.180          -0.030          -0.983       3.554e-02         -0.2479
 955       9.999e+00       1.541e+01       3.398e-01           0.090           0.008          -0.996       3.610e-02         -0.4208
 956       9.777e+00       1.541e+01       3.281e-01           0.014           0.044          -0.999       3.491e-02         -0.5064
 957       9.567e+00       1.541e+01       3.306e-01          -0.040           0.070          -0.997       3.188e-02         -0.5952
 958       9.382e+00       1.541e+01       3.428e-01          -0.097           0.099          -0.990       2.710e-02         -0.7911
 959       9.234e+00       1.541e+01       3.629e-01          -0.181           0.145          -0.973       2.091e-02         -1.2831
 960       9.129e+00       1.541e+01       3.919e-01          -0.381           0.256          -0.888       1.423e-02         -2.3177
 961       9.076e+00       1.541e+01       4.332e-01          -0.776           0.469          -0.423       9.932e-03         -1.6926
 962       9.076e+00       1.541e+01       4.816e-01          -0.776           0.443           0.449       9.926e-03          0.1981
 963       9.129e+00       1.541e+01       5.229e-01          -0.382           0.203           0.902       1.422e-02          0.4068
 964       9.234e+00       1.541e+01       5.514e-01          -0.175           0.084           0.981       2.085e-02          0.1439
 965       9.382e+00       1.541e+01       5.709e-01          -0.093           0.039           0.995       2.704e-02         -0.0017
 966       9.567e+00       1.541e+01       5.831e-01          -0.042           0.012           0.999       3.183e-02         -0.0828
 967       9.777e+00       1.541e+01       5.878e-01          -0.005          -0.007           1.000       3.485e-02         -0.1340
 968       9.999e+00       1.541e+01       5.843e-01           0.036          -0.025           0.999       3.591e-02         -0.1775
 969       1.022e+01       1.541e+01       5.707e-01           0.087          -0.047           0.995       3.499e-02         -0.2055
 970       1.043e+01       1.541e+01       5.482e-01           0.128          -0.063           0.990       3.207e-02         -0.2115
 971       1.062e+01       1.541e+01       5.220e-01           0.156          -0.072           0.985       2.723e-02         -0.2156
 972       1.076e+01       1.541e+01       4.972e-01           0.177          -0.079           0.981       2.075e-02         -0.2250
 973       1.087e+01       1.541e+01       4.775e-01           0.198          -0.085           0.977       1.301e-02         -0.2552
 974       1.092e+01       1.541e+01       4.637e-01           0.387          -0.139           0.911       4.732e-03         -0.2575
Strip 38
 975       1.095e+01       1.552e+01       4.607e-01           0.026           0.022          -0.999       1.423e-03         -0.6247
 976       1.090e+01       1.552e+01       4.643e-01          -0.099           0.059          -0.993       4.206e-03         -0.5128
 977       1.080e+01       1.552e+01       4.659e-01           0.036           0.017          -0.999       6.706e-03         -0.3139
 978       1.065e+01       1.552e+01       4.503e-01           0.159          -0.023          -0.987       8.957e-03         -0.2134
 979       1.047e+01       1.552e+01       4.158e-01           0.210          -0.042          -0.977       1.072e-02         -0.1766
 980       1.026e+01       1.552e+01       3.748e-01           0.180          -0.030          -0.983       1.167e-02         -0.2682
 981       1.005e+01       1.552e+01       3.450e-01           0.090           0.008          -0.996       1.186e-02         -0.3996
 982       9.827e+00       1.552e+01       3.334e-01           0.014           0.044          -0.999       1.147e-02         -0.4649
 983       9.621e+00       1.552e+01       3.359e-01          -0.040           0.070          -0.997       1.047e-02         -0.5219
 984       9.439e+00       1.552e+01       3.479e-01          -0.097           0.099          -0.990       8.901e-03         -0.6460
 985       9.293e+00       1.552e+01       3.677e-01          -0.181           0.145          -0.973       6.867e-03         -0.9294
 986       9.191e+00       1.552e+01       3.961e-01          -0.382           0.256          -0.888       4.674e-03         -1.8624
 987       9.138e+00       1.552e+01       4.367e-01          -0.776           0.469          -0.422       3.262e-03         -1.3138
 988       9.138e+00       1.552e+01       4.843e-01          -0.776           0.443           0.449       3.261e-03          0.2100
 989       9.191e+00       1.551e+01       5.249e-01          -0.382           0.203           0.902       4.670e-03          0.1984
 990       9.293e+00       1.551e+01       5.530e-01          -0.175           0.084           0.981       6.849e-03          0.0646
 991       9.439e+00       1.551e+01       5.721e-01          -0.093           0.039           0.995       8.884e-03         -0.0735
 992       9.621e+00       1.551e+01       5.841e-01          -0.042           0.012           0.999       1.046e-02         -0.1305
 993       9.827e+00       1.551e+01       5.888e-01          -0.005          -0.007           1.000       1.145e-02         -0.1701
 994       1.005e+01       1.551e+01       5.853e-01           0.036          -0.025           0.999       1.180e-02         -0.2152
 995       1.026e+01       1.551e+01       5.720e-01           0.087          -0.047           0.995       1.149e-02         -0.2700
 996       1.047e+01       1.551e+01       5.499e-01           0.128          -0.063           0.990       1.053e-02         -0.3323
 997       1.065e+01       1.551e+01       5.240e-01           0.156          -0.072           0.985       8.944e-03         -0.4009
 998       1.080e+01       1.552e+01       4.996e-01           0.177          -0.079           0.981       6.816e-03         -0.4492
 999       1.090e+01       1.552e+01       4.804e-01           0.198          -0.085           0.977       4.274e-03         -0.5001
1000       1.095e+01       1.552e+01       4.667e-01           0.387          -0.139           0.911       1.554e-03         -0.5261










