xflr5 v6.51

Plane Name
T1-10.0 m/s-Panel-Inviscid
QInf  =   10.000000 m/s
Alpha =   10.000000
Beta  =    0.000°
Phi   =    0.000°
Ctrl  =    0.000
CL    =    0.970715
Cy    =    0.000000
Cd    =    0.038922     ICd   =    0.038922     PCd   =    0.000000
Cl   = 3.35983e-06
Cm   =    -1.16705
ICn   =   -0.000003     PCn   =   -0.000003
XCP   =    5.472776     YCP   =   -0.000110     ZCP   =    0.361364
XNP   =    0.000000
Bending = 23178.439919

Main Wing
  y-span        Chord      Ai         Cl        PCd          ICd        CmGeom    CmAirf@chord/4    XTrtop    XTrBot      XCP       BM
  -15.5234     1.8429    -8.444    0.337884    0.000000    0.050155   -2.196312    0.004716     0.0000    0.0000    0.2346    0.0000
  -15.4174     1.8744    -6.340    0.556809    0.000000    0.061861   -3.124993   -0.018512     0.0000    0.0000    0.2757    0.2218
  -15.2060     1.9373    -5.170    0.749798    0.000000    0.067828   -3.791829   -0.016280     0.0000    0.0000    0.2657    2.8821
  -14.8908     2.0311    -4.231    0.895329    0.000000    0.066213   -4.228627   -0.027417     0.0000    0.0000    0.2749   14.4889
  -14.4739     2.1551    -3.498    0.994924    0.000000    0.060794   -4.345480   -0.039881     0.0000    0.0000    0.2844   47.4283
  -13.9580     2.3085    -2.936    1.055915    0.000000    0.054120   -4.197871   -0.049621     0.0000    0.0000    0.2913   120.8614
  -13.3469     2.4903    -2.530    1.087651    0.000000    0.048022   -3.878732   -0.056067     0.0000    0.0000    0.2959   261.0583
  -12.6445     2.6992    -2.264    1.098768    0.000000    0.043408   -3.471611   -0.059965     0.0000    0.0000    0.2989   501.3300
  -11.8558     2.9338    -2.113    1.095812    0.000000    0.040376   -3.035335   -0.062198     0.0000    0.0000    0.3011   881.6450
  -10.9861     3.1924    -2.045    1.083218    0.000000    0.038635   -2.606111   -0.063410     0.0000    0.0000    0.3028   1447.9087
  -10.0414     3.4734    -2.039    1.063811    0.000000    0.037813   -2.203858   -0.064014     0.0000    0.0000    0.3045   2250.8309
   -9.0280     3.7748    -2.074    1.039320    0.000000    0.037572   -1.838163   -0.064260     0.0000    0.0000    0.3061   3344.3206
   -7.9530     4.0946    -2.136    1.010741    0.000000    0.037631   -1.512309   -0.064317     0.0000    0.0000    0.3079   4783.3865
   -6.8237     4.4305    -2.215    0.978593    0.000000    0.037760   -1.226228   -0.064320     0.0000    0.0000    0.3101   6621.5672
   -5.6477     4.7802    -2.298    0.943046    0.000000    0.037741   -0.977970   -0.064444     0.0000    0.0000    0.3127   8907.9653
   -4.4332     5.1414    -2.372    0.904003    0.000000    0.037318   -0.764896   -0.064984     0.0000    0.0000    0.3164   11684.0007
   -3.1884     5.5117    -2.415    0.861141    0.000000    0.036140   -0.584526   -0.066562     0.0000    0.0000    0.3219   14980.0307
   -1.9218     5.8884    -2.382    0.813840    0.000000    0.033549   -0.435368   -0.070583     0.0000    0.0000    0.3317   18812.0244
   -0.6421     6.2690    -2.122    0.759089    0.000000    0.027170   -0.318394   -0.081802     0.0000    0.0000    0.3538   23178.4399
    0.6421     6.2690    -2.122    0.759089    0.000000    0.027170   -0.318394   -0.081802     0.0000    0.0000    0.3538   23178.4395
    1.9218     5.8884    -2.382    0.813840    0.000000    0.033549   -0.435368   -0.070583     0.0000    0.0000    0.3317   18812.0239
    3.1884     5.5117    -2.415    0.861141    0.000000    0.036140   -0.584526   -0.066562     0.0000    0.0000    0.3219   14980.0303
    4.4332     5.1414    -2.372    0.904003    0.000000    0.037318   -0.764896   -0.064984     0.0000    0.0000    0.3164   11684.0003
    5.6477     4.7802    -2.298    0.943046    0.000000    0.037741   -0.977970   -0.064444     0.0000    0.0000    0.3127   8907.9650
    6.8237     4.4305    -2.215    0.978593    0.000000    0.037760   -1.226228   -0.064320     0.0000    0.0000    0.3101   6621.5670
    7.9530     4.0946    -2.136    1.010741    0.000000    0.037631   -1.512309   -0.064317     0.0000    0.0000    0.3079   4783.3863
    9.0280     3.7748    -2.074    1.039320    0.000000    0.037572   -1.838163   -0.064260     0.0000    0.0000    0.3061   3344.3204
   10.0414     3.4734    -2.039    1.063811    0.000000    0.037813   -2.203858   -0.064014     0.0000    0.0000    0.3045   2250.8307
   10.9861     3.1924    -2.045    1.083218    0.000000    0.038635   -2.606111   -0.063410     0.0000    0.0000    0.3028   1447.9086
   11.8558     2.9338    -2.113    1.095812    0.000000    0.040376   -3.035334   -0.062198     0.0000    0.0000    0.3011   881.6449
   12.6445     2.6992    -2.264    1.098768    0.000000    0.043408   -3.471610   -0.059965     0.0000    0.0000    0.2989   501.3299
   13.3469     2.4903    -2.530    1.087651    0.000000    0.048022   -3.878727   -0.056067     0.0000    0.0000    0.2959   261.0583
   13.9580     2.3085    -2.936    1.055915    0.000000    0.054120   -4.197858   -0.049620     0.0000    0.0000    0.2913   120.8614
   14.4739     2.1551    -3.498    0.994924    0.000000    0.060794   -4.345438   -0.039880     0.0000    0.0000    0.2844   47.4283
   14.8908     2.0311    -4.231    0.895329    0.000000    0.066213   -4.228448   -0.027418     0.0000    0.0000    0.2749   14.4889
   15.2060     1.9373    -5.170    0.749798    0.000000    0.067828   -3.790641   -0.016314     0.0000    0.0000    0.2657    2.8821
   15.4174     1.8744    -6.340    0.556809    0.000000    0.061861   -3.117547   -0.018800     0.0000    0.0000    0.2763    0.2218
   15.5234     1.8429    -8.444    0.337884    0.000000    0.050155   -2.181085    0.004203     0.0000    0.0000    0.2358    0.0000


Main Wing Cp Coefficients
 Panel     CtrlPt.x        CtrlPt.y        CtrlPt.z       Nx      Ny       Nz        Area       Cp
Main WingCp Coefficients
Strip 1
  13       1.095e+01      -1.552e+01       4.607e-01           0.026          -0.022          -0.999       1.423e-03         -1.1865
  14       1.090e+01      -1.552e+01       4.643e-01          -0.099          -0.059          -0.993       4.206e-03         -1.1504
  15       1.080e+01      -1.552e+01       4.659e-01           0.036          -0.017          -0.999       6.706e-03         -0.9820
  16       1.065e+01      -1.552e+01       4.503e-01           0.159           0.023          -0.987       8.957e-03         -0.6807
  17       1.047e+01      -1.552e+01       4.158e-01           0.210           0.042          -0.977       1.072e-02         -0.4265
  18       1.026e+01      -1.552e+01       3.748e-01           0.180           0.030          -0.983       1.167e-02         -0.3085
  19       1.005e+01      -1.552e+01       3.450e-01           0.090          -0.008          -0.996       1.186e-02         -0.2519
  20       9.827e+00      -1.552e+01       3.334e-01           0.014          -0.044          -0.999       1.147e-02         -0.2008
  21       9.621e+00      -1.552e+01       3.359e-01          -0.040          -0.070          -0.997       1.047e-02         -0.1519
  22       9.439e+00      -1.552e+01       3.479e-01          -0.097          -0.099          -0.990       8.901e-03         -0.0867
  23       9.293e+00      -1.552e+01       3.677e-01          -0.181          -0.145          -0.973       6.867e-03          0.0419
  24       9.191e+00      -1.552e+01       3.961e-01          -0.382          -0.256          -0.888       4.674e-03          0.2742
  25       9.138e+00      -1.552e+01       4.367e-01          -0.776          -0.469          -0.422       3.262e-03          0.0138
  26       9.138e+00      -1.552e+01       4.843e-01          -0.776          -0.443           0.449       3.261e-03         -1.6648
  27       9.191e+00      -1.551e+01       5.249e-01          -0.382          -0.203           0.902       4.670e-03         -2.1998
  28       9.293e+00      -1.551e+01       5.530e-01          -0.175          -0.084           0.981       6.849e-03         -1.1820
  29       9.439e+00      -1.551e+01       5.721e-01          -0.093          -0.039           0.995       8.884e-03         -0.7457
  30       9.621e+00      -1.551e+01       5.841e-01          -0.042          -0.012           0.999       1.046e-02         -0.5853
  31       9.827e+00      -1.551e+01       5.888e-01          -0.005           0.007           1.000       1.145e-02         -0.5122
  32       1.005e+01      -1.551e+01       5.853e-01           0.036           0.025           0.999       1.180e-02         -0.4771
  33       1.026e+01      -1.551e+01       5.720e-01           0.087           0.047           0.995       1.149e-02         -0.4623
  34       1.047e+01      -1.551e+01       5.499e-01           0.128           0.063           0.990       1.053e-02         -0.5268
  35       1.065e+01      -1.551e+01       5.240e-01           0.156           0.072           0.985       8.944e-03         -0.7516
  36       1.080e+01      -1.552e+01       4.996e-01           0.177           0.079           0.981       6.816e-03         -1.0930
  37       1.090e+01      -1.552e+01       4.804e-01           0.198           0.085           0.977       4.274e-03         -1.3629
  38       1.095e+01      -1.552e+01       4.667e-01           0.387           0.139           0.911       1.554e-03         -1.2317
Strip 2
  39       1.092e+01      -1.541e+01       4.576e-01           0.026          -0.022          -0.999       4.331e-03         -0.5487
  40       1.087e+01      -1.541e+01       4.612e-01          -0.099          -0.059          -0.993       1.280e-02         -0.4486
  41       1.076e+01      -1.541e+01       4.629e-01           0.036          -0.017          -0.999       2.042e-02         -0.3378
  42       1.062e+01      -1.541e+01       4.470e-01           0.159           0.023          -0.987       2.727e-02         -0.2306
  43       1.043e+01      -1.541e+01       4.119e-01           0.210           0.042          -0.977       3.262e-02         -0.1809
  44       1.022e+01      -1.541e+01       3.702e-01           0.180           0.030          -0.983       3.554e-02         -0.2021
  45       9.999e+00      -1.541e+01       3.398e-01           0.090          -0.008          -0.996       3.610e-02         -0.2067
  46       9.777e+00      -1.541e+01       3.281e-01           0.014          -0.044          -0.999       3.491e-02         -0.1587
  47       9.567e+00      -1.541e+01       3.306e-01          -0.040          -0.070          -0.997       3.188e-02         -0.0897
  48       9.382e+00      -1.541e+01       3.428e-01          -0.097          -0.099          -0.990       2.710e-02          0.0093
  49       9.234e+00      -1.541e+01       3.629e-01          -0.181          -0.145          -0.973       2.091e-02          0.1834
  50       9.129e+00      -1.541e+01       3.919e-01          -0.381          -0.256          -0.888       1.423e-02          0.4499
  51       9.076e+00      -1.541e+01       4.332e-01          -0.776          -0.469          -0.423       9.932e-03         -0.0546
  52       9.076e+00      -1.541e+01       4.816e-01          -0.776          -0.443           0.449       9.926e-03         -2.2435
  53       9.129e+00      -1.541e+01       5.229e-01          -0.382          -0.203           0.902       1.422e-02         -2.7824
  54       9.234e+00      -1.541e+01       5.514e-01          -0.175          -0.084           0.981       2.085e-02         -1.4970
  55       9.382e+00      -1.541e+01       5.709e-01          -0.093          -0.039           0.995       2.704e-02         -0.9037
  56       9.567e+00      -1.541e+01       5.831e-01          -0.042          -0.012           0.999       3.183e-02         -0.6569
  57       9.777e+00      -1.541e+01       5.878e-01          -0.005           0.007           1.000       3.485e-02         -0.5448
  58       9.999e+00      -1.541e+01       5.843e-01           0.036           0.025           0.999       3.591e-02         -0.4938
  59       1.022e+01      -1.541e+01       5.707e-01           0.087           0.047           0.995       3.499e-02         -0.4586
  60       1.043e+01      -1.541e+01       5.482e-01           0.128           0.063           0.990       3.207e-02         -0.4577
  61       1.062e+01      -1.541e+01       5.220e-01           0.156           0.072           0.985       2.723e-02         -0.5298
  62       1.076e+01      -1.541e+01       4.972e-01           0.177           0.079           0.981       2.075e-02         -0.6360
  63       1.087e+01      -1.541e+01       4.775e-01           0.198           0.085           0.977       1.301e-02         -0.7204
  64       1.092e+01      -1.541e+01       4.637e-01           0.387           0.139           0.911       4.732e-03         -0.5287
Strip 3
  65       1.086e+01      -1.520e+01       4.513e-01           0.026          -0.022          -0.999       7.426e-03         -0.0450
  66       1.081e+01      -1.520e+01       4.551e-01          -0.099          -0.059          -0.993       2.196e-02          0.0892
  67       1.070e+01      -1.520e+01       4.568e-01           0.036          -0.017          -0.999       3.501e-02          0.1416
  68       1.054e+01      -1.520e+01       4.404e-01           0.159           0.023          -0.987       4.675e-02          0.1019
  69       1.035e+01      -1.520e+01       4.041e-01           0.210           0.042          -0.977       5.593e-02          0.0122
  70       1.014e+01      -1.520e+01       3.610e-01           0.180           0.030          -0.983       6.093e-02         -0.0916
  71       9.906e+00      -1.520e+01       3.296e-01           0.090          -0.008          -0.996       6.190e-02         -0.1296
  72       9.676e+00      -1.520e+01       3.174e-01           0.014          -0.044          -0.999       5.986e-02         -0.0765
  73       9.460e+00      -1.520e+01       3.201e-01          -0.040          -0.070          -0.997       5.467e-02          0.0221
  74       9.269e+00      -1.520e+01       3.327e-01          -0.097          -0.099          -0.990       4.647e-02          0.1669
  75       9.115e+00      -1.520e+01       3.535e-01          -0.181          -0.145          -0.973       3.585e-02          0.3838
  76       9.007e+00      -1.520e+01       3.834e-01          -0.381          -0.256          -0.888       2.441e-02          0.6319
  77       8.952e+00      -1.520e+01       4.261e-01          -0.776          -0.469          -0.423       1.703e-02         -0.1178
  78       8.952e+00      -1.520e+01       4.761e-01          -0.776          -0.443           0.449       1.702e-02         -2.7107
  79       9.007e+00      -1.520e+01       5.188e-01          -0.382          -0.203           0.902       2.437e-02         -3.2674
  80       9.115e+00      -1.520e+01       5.483e-01          -0.175          -0.084           0.981       3.574e-02         -1.8000
  81       9.269e+00      -1.520e+01       5.684e-01          -0.093          -0.039           0.995       4.637e-02         -1.1009
  82       9.460e+00      -1.520e+01       5.810e-01          -0.042          -0.012           0.999       5.458e-02         -0.7737
  83       9.676e+00      -1.520e+01       5.859e-01          -0.005           0.007           1.000       5.976e-02         -0.6022
  84       9.906e+00      -1.520e+01       5.823e-01           0.036           0.025           0.999       6.158e-02         -0.5069
  85       1.014e+01      -1.520e+01       5.683e-01           0.087           0.047           0.995       5.999e-02         -0.4148
  86       1.035e+01      -1.520e+01       5.450e-01           0.128           0.063           0.990       5.499e-02         -0.3120
  87       1.054e+01      -1.520e+01       5.179e-01           0.156           0.072           0.985       4.670e-02         -0.2319
  88       1.070e+01      -1.520e+01       4.922e-01           0.176           0.079           0.981       3.559e-02         -0.1760
  89       1.081e+01      -1.520e+01       4.720e-01           0.198           0.085           0.977       2.232e-02         -0.1562
  90       1.086e+01      -1.520e+01       4.576e-01           0.387           0.139           0.911       8.114e-03          0.0415
Strip 4
  91       1.077e+01      -1.488e+01       4.420e-01           0.026          -0.022          -0.999       1.083e-02          0.0627
  92       1.071e+01      -1.488e+01       4.459e-01          -0.099          -0.059          -0.993       3.201e-02          0.2118
  93       1.060e+01      -1.488e+01       4.477e-01           0.036          -0.017          -0.999       5.103e-02          0.2689
  94       1.044e+01      -1.488e+01       4.305e-01           0.159           0.023          -0.987       6.815e-02          0.2170
  95       1.024e+01      -1.489e+01       3.925e-01           0.210           0.042          -0.977       8.152e-02          0.1067
  96       1.001e+01      -1.489e+01       3.473e-01           0.180           0.030          -0.983       8.881e-02         -0.0157
  97       9.768e+00      -1.489e+01       3.144e-01           0.090          -0.008          -0.996       9.022e-02         -0.0597
  98       9.527e+00      -1.489e+01       3.016e-01           0.014          -0.044          -0.999       8.726e-02          0.0025
  99       9.300e+00      -1.489e+01       3.044e-01          -0.040          -0.070          -0.997       7.970e-02          0.1182
 100       9.100e+00      -1.489e+01       3.176e-01          -0.096          -0.099          -0.990       6.775e-02          0.2754
 101       8.938e+00      -1.489e+01       3.394e-01          -0.181          -0.145          -0.973       5.227e-02          0.4874
 102       8.825e+00      -1.489e+01       3.708e-01          -0.381          -0.256          -0.888       3.560e-02          0.6843
 103       8.767e+00      -1.488e+01       4.155e-01          -0.775          -0.468          -0.424       2.484e-02         -0.2499
 104       8.767e+00      -1.488e+01       4.680e-01          -0.776          -0.443           0.448       2.480e-02         -3.0589
 105       8.825e+00      -1.488e+01       5.127e-01          -0.382          -0.203           0.902       3.551e-02         -3.5912
 106       8.938e+00      -1.488e+01       5.437e-01          -0.176          -0.084           0.981       5.210e-02         -1.9992
 107       9.100e+00      -1.488e+01       5.648e-01          -0.093          -0.039           0.995       6.759e-02         -1.2505
 108       9.300e+00      -1.488e+01       5.780e-01          -0.042          -0.012           0.999       7.956e-02         -0.8925
 109       9.527e+00      -1.488e+01       5.831e-01          -0.005           0.007           1.000       8.712e-02         -0.6880
 110       9.768e+00      -1.488e+01       5.793e-01           0.036           0.025           0.999       8.977e-02         -0.5589
 111       1.001e+01      -1.488e+01       5.646e-01           0.087           0.047           0.995       8.746e-02         -0.4319
 112       1.024e+01      -1.488e+01       5.402e-01           0.128           0.063           0.990       8.017e-02         -0.2933
 113       1.044e+01      -1.488e+01       5.118e-01           0.156           0.072           0.985       6.808e-02         -0.1788
 114       1.060e+01      -1.488e+01       4.849e-01           0.176           0.079           0.981       5.188e-02         -0.0922
 115       1.071e+01      -1.488e+01       4.636e-01           0.198           0.085           0.977       3.253e-02         -0.0496
 116       1.077e+01      -1.488e+01       4.486e-01           0.387           0.139           0.911       1.183e-02          0.1459
Strip 5
 117       1.065e+01      -1.447e+01       4.296e-01           0.026          -0.022          -0.999       1.463e-02          0.0985
 118       1.059e+01      -1.447e+01       4.338e-01          -0.099          -0.059          -0.993       4.327e-02          0.2559
 119       1.047e+01      -1.447e+01       4.357e-01           0.036          -0.017          -0.999       6.898e-02          0.3190
 120       1.029e+01      -1.447e+01       4.175e-01           0.159           0.023          -0.987       9.211e-02          0.2677
 121       1.008e+01      -1.447e+01       3.771e-01           0.210           0.042          -0.977       1.102e-01          0.1558
 122       9.841e+00      -1.447e+01       3.292e-01           0.180           0.030          -0.983       1.200e-01          0.0332
 123       9.585e+00      -1.447e+01       2.942e-01           0.090          -0.008          -0.996       1.219e-01         -0.0074
 124       9.329e+00      -1.447e+01       2.807e-01           0.014          -0.044          -0.999       1.179e-01          0.0602
 125       9.088e+00      -1.447e+01       2.836e-01          -0.040          -0.070          -0.997       1.077e-01          0.1791
 126       8.876e+00      -1.447e+01       2.977e-01          -0.096          -0.099          -0.990       9.159e-02          0.3339
 127       8.705e+00      -1.447e+01       3.208e-01          -0.181          -0.145          -0.973       7.067e-02          0.5367
 128       8.585e+00      -1.447e+01       3.541e-01          -0.381          -0.256          -0.889       4.814e-02          0.6989
 129       8.523e+00      -1.447e+01       4.015e-01          -0.775          -0.468          -0.425       3.359e-02         -0.3505
 130       8.523e+00      -1.447e+01       4.572e-01          -0.777          -0.444           0.447       3.350e-02         -3.2897
 131       8.585e+00      -1.447e+01       5.047e-01          -0.382          -0.203           0.902       4.798e-02         -3.7992
 132       8.705e+00      -1.446e+01       5.376e-01          -0.176          -0.084           0.981       7.041e-02         -2.1236
 133       8.876e+00      -1.446e+01       5.599e-01          -0.093          -0.039           0.995       9.135e-02         -1.3456
 134       9.088e+00      -1.446e+01       5.739e-01          -0.042          -0.012           0.999       1.075e-01         -0.9756
 135       9.329e+00      -1.446e+01       5.794e-01          -0.005           0.007           1.000       1.178e-01         -0.7602
 136       9.585e+00      -1.446e+01       5.753e-01           0.036           0.025           0.999       1.213e-01         -0.6163
 137       9.841e+00      -1.446e+01       5.597e-01           0.087           0.047           0.995       1.182e-01         -0.4712
 138       1.008e+01      -1.447e+01       5.339e-01           0.128           0.063           0.990       1.084e-01         -0.3137
 139       1.029e+01      -1.447e+01       5.037e-01           0.155           0.072           0.985       9.203e-02         -0.1810
 140       1.047e+01      -1.447e+01       4.751e-01           0.176           0.079           0.981       7.013e-02         -0.0789
 141       1.059e+01      -1.447e+01       4.526e-01           0.198           0.085           0.977       4.398e-02         -0.0244
 142       1.065e+01      -1.447e+01       4.367e-01           0.387           0.139           0.911       1.600e-02          0.1713
Strip 6
 143       1.050e+01      -1.395e+01       4.143e-01           0.026          -0.022          -0.999       1.894e-02          0.1136
 144       1.043e+01      -1.395e+01       4.188e-01          -0.099          -0.059          -0.993       5.601e-02          0.2762
 145       1.030e+01      -1.395e+01       4.209e-01           0.036          -0.017          -0.999       8.927e-02          0.3438
 146       1.012e+01      -1.395e+01       4.013e-01           0.159           0.023          -0.987       1.192e-01          0.2949
 147       9.891e+00      -1.395e+01       3.580e-01           0.210           0.042          -0.977       1.426e-01          0.1849
 148       9.633e+00      -1.395e+01       3.067e-01           0.180           0.030          -0.983       1.553e-01          0.0649
 149       9.359e+00      -1.395e+01       2.693e-01           0.090          -0.008          -0.996       1.578e-01          0.0272
 150       9.084e+00      -1.396e+01       2.548e-01           0.014          -0.044          -0.999       1.527e-01          0.0959
 151       8.826e+00      -1.396e+01       2.579e-01          -0.040          -0.070          -0.997       1.394e-01          0.2133
 152       8.599e+00      -1.395e+01       2.730e-01          -0.096          -0.099          -0.990       1.185e-01          0.3645
 153       8.416e+00      -1.395e+01       2.977e-01          -0.181          -0.145          -0.973       9.149e-02          0.5611
 154       8.287e+00      -1.395e+01       3.334e-01          -0.381          -0.255          -0.889       6.233e-02          0.7038
 155       8.221e+00      -1.395e+01       3.842e-01          -0.775          -0.468          -0.425       4.350e-02         -0.4065
 156       8.221e+00      -1.395e+01       4.439e-01          -0.777          -0.444           0.446       4.334e-02         -3.4169
 157       8.287e+00      -1.395e+01       4.948e-01          -0.382          -0.203           0.901       6.207e-02         -3.9148
 158       8.416e+00      -1.395e+01       5.300e-01          -0.176          -0.084           0.981       9.110e-02         -2.1929
 159       8.599e+00      -1.395e+01       5.539e-01          -0.093          -0.039           0.995       1.182e-01         -1.3992
 160       8.826e+00      -1.395e+01       5.689e-01          -0.042          -0.012           0.999       1.392e-01         -1.0243
 161       9.084e+00      -1.395e+01       5.748e-01          -0.005           0.007           1.000       1.524e-01         -0.8056
 162       9.359e+00      -1.395e+01       5.704e-01           0.036           0.025           0.999       1.571e-01         -0.6567
 163       9.633e+00      -1.395e+01       5.537e-01           0.087           0.047           0.995       1.530e-01         -0.5036
 164       9.891e+00      -1.395e+01       5.260e-01           0.128           0.063           0.990       1.403e-01         -0.3359
 165       1.012e+01      -1.395e+01       4.937e-01           0.155           0.072           0.985       1.191e-01         -0.1926
 166       1.030e+01      -1.395e+01       4.631e-01           0.176           0.079           0.981       9.078e-02         -0.0814
 167       1.043e+01      -1.395e+01       4.389e-01           0.198           0.085           0.977       5.693e-02         -0.0196
 168       1.050e+01      -1.395e+01       4.219e-01           0.387           0.139           0.911       2.071e-02          0.1769
Strip 7
 169       1.032e+01      -1.334e+01       3.962e-01           0.026          -0.022          -0.999       2.381e-02          0.1211
 170       1.025e+01      -1.334e+01       4.010e-01          -0.099          -0.059          -0.993       7.042e-02          0.2869
 171       1.011e+01      -1.334e+01       4.033e-01           0.036          -0.017          -0.999       1.122e-01          0.3574
 172       9.910e+00      -1.334e+01       3.822e-01           0.159           0.023          -0.987       1.498e-01          0.3104
 173       9.665e+00      -1.334e+01       3.355e-01           0.210           0.042          -0.977       1.792e-01          0.2021
 174       9.386e+00      -1.334e+01       2.801e-01           0.180           0.030          -0.983       1.952e-01          0.0838
 175       9.090e+00      -1.334e+01       2.397e-01           0.090          -0.008          -0.996       1.984e-01          0.0471
 176       8.794e+00      -1.334e+01       2.241e-01           0.014          -0.044          -0.999       1.919e-01          0.1153
 177       8.516e+00      -1.334e+01       2.274e-01          -0.040          -0.070          -0.997       1.753e-01          0.2308
 178       8.271e+00      -1.334e+01       2.437e-01          -0.096          -0.099          -0.990       1.491e-01          0.3790
 179       8.073e+00      -1.334e+01       2.704e-01          -0.181          -0.145          -0.973       1.151e-01          0.5721
 180       7.934e+00      -1.334e+01       3.089e-01          -0.381          -0.255          -0.889       7.840e-02          0.7072
 181       7.863e+00      -1.334e+01       3.638e-01          -0.774          -0.468          -0.426       5.471e-02         -0.4216
 182       7.863e+00      -1.334e+01       4.281e-01          -0.777          -0.444           0.445       5.447e-02         -3.4592
 183       7.934e+00      -1.334e+01       4.830e-01          -0.382          -0.203           0.901       7.801e-02         -3.9576
 184       8.073e+00      -1.334e+01       5.210e-01          -0.176          -0.084           0.981       1.145e-01         -2.2211
 185       8.271e+00      -1.334e+01       5.468e-01          -0.093          -0.039           0.995       1.486e-01         -1.4234
 186       8.516e+00      -1.334e+01       5.630e-01          -0.042          -0.012           0.999       1.750e-01         -1.0479
 187       8.794e+00      -1.334e+01       5.693e-01          -0.005           0.007           1.000       1.916e-01         -0.8292
 188       9.090e+00      -1.334e+01       5.646e-01           0.036           0.025           0.999       1.975e-01         -0.6793
 189       9.386e+00      -1.334e+01       5.466e-01           0.087           0.047           0.995       1.924e-01         -0.5230
 190       9.665e+00      -1.334e+01       5.167e-01           0.128           0.063           0.990       1.764e-01         -0.3505
 191       9.910e+00      -1.334e+01       4.818e-01           0.155           0.072           0.985       1.498e-01         -0.2018
 192       1.011e+01      -1.334e+01       4.488e-01           0.176           0.079           0.981       1.142e-01         -0.0856
 193       1.025e+01      -1.334e+01       4.228e-01           0.197           0.085           0.977       7.159e-02         -0.0194
 194       1.032e+01      -1.334e+01       4.044e-01           0.387           0.139           0.912       2.604e-02          0.1777
Strip 8
 195       1.011e+01      -1.264e+01       3.754e-01           0.026          -0.022          -0.999       2.929e-02          0.1253
 196       1.003e+01      -1.264e+01       3.806e-01          -0.099          -0.059          -0.993       8.665e-02          0.2930
 197       9.884e+00      -1.264e+01       3.831e-01           0.036          -0.017          -0.999       1.381e-01          0.3652
 198       9.670e+00      -1.264e+01       3.602e-01           0.159           0.023          -0.987       1.843e-01          0.3193
 199       9.404e+00      -1.264e+01       3.096e-01           0.210           0.042          -0.977       2.205e-01          0.2117
 200       9.102e+00      -1.264e+01       2.496e-01           0.180           0.030          -0.983       2.402e-01          0.0937
 201       8.782e+00      -1.264e+01       2.058e-01           0.090          -0.008          -0.996       2.441e-01          0.0568
 202       8.461e+00      -1.264e+01       1.888e-01           0.014          -0.044          -0.999       2.361e-01          0.1239
 203       8.159e+00      -1.264e+01       1.925e-01          -0.040          -0.070          -0.997       2.157e-01          0.2377
 204       7.893e+00      -1.264e+01       2.101e-01          -0.096          -0.099          -0.990       1.834e-01          0.3836
 205       7.679e+00      -1.264e+01       2.391e-01          -0.181          -0.145          -0.973       1.416e-01          0.5747
 206       7.529e+00      -1.264e+01       2.808e-01          -0.380          -0.255          -0.889       9.651e-02          0.7110
 207       7.452e+00      -1.264e+01       3.402e-01          -0.774          -0.468          -0.427       6.735e-02         -0.4042
 208       7.452e+00      -1.264e+01       4.100e-01          -0.778          -0.444           0.444       6.698e-02         -3.4361
 209       7.529e+00      -1.264e+01       4.695e-01          -0.383          -0.204           0.901       9.593e-02         -3.9456
 210       7.679e+00      -1.264e+01       5.106e-01          -0.176          -0.084           0.981       1.409e-01         -2.2195
 211       7.893e+00      -1.264e+01       5.386e-01          -0.093          -0.039           0.995       1.828e-01         -1.4269
 212       8.159e+00      -1.264e+01       5.562e-01          -0.042          -0.012           0.999       2.153e-01         -1.0545
 213       8.461e+00      -1.264e+01       5.630e-01          -0.005           0.007           1.000       2.358e-01         -0.8380
 214       8.782e+00      -1.264e+01       5.580e-01           0.036           0.025           0.999       2.430e-01         -0.6889
 215       9.102e+00      -1.264e+01       5.384e-01           0.087           0.047           0.995       2.368e-01         -0.5321
 216       9.404e+00      -1.264e+01       5.060e-01           0.128           0.063           0.990       2.171e-01         -0.3578
 217       9.670e+00      -1.264e+01       4.682e-01           0.155           0.072           0.985       1.843e-01         -0.2066
 218       9.884e+00      -1.264e+01       4.324e-01           0.176           0.079           0.981       1.405e-01         -0.0881
 219       1.003e+01      -1.264e+01       4.042e-01           0.197           0.085           0.977       8.809e-02         -0.0197
 220       1.011e+01      -1.264e+01       3.842e-01           0.387           0.139           0.912       3.205e-02          0.1777
Strip 9
 221       9.881e+00      -1.185e+01       3.520e-01           0.026          -0.022          -0.999       3.541e-02          0.1277
 222       9.797e+00      -1.185e+01       3.577e-01          -0.099          -0.059          -0.993       1.048e-01          0.2965
 223       9.634e+00      -1.185e+01       3.604e-01           0.036          -0.017          -0.999       1.669e-01          0.3697
 224       9.401e+00      -1.185e+01       3.355e-01           0.159           0.023          -0.987       2.228e-01          0.3242
 225       9.112e+00      -1.185e+01       2.805e-01           0.210           0.042          -0.977       2.665e-01          0.2165
 226       8.784e+00      -1.185e+01       2.153e-01           0.180           0.030          -0.983       2.903e-01          0.0978
 227       8.436e+00      -1.185e+01       1.677e-01           0.090          -0.008          -0.996       2.951e-01          0.0598
 228       8.087e+00      -1.185e+01       1.492e-01           0.014          -0.044          -0.999       2.855e-01          0.1255
 229       7.759e+00      -1.185e+01       1.532e-01          -0.040          -0.070          -0.997       2.608e-01          0.2376
 230       7.470e+00      -1.185e+01       1.724e-01          -0.096          -0.099          -0.990       2.218e-01          0.3817
 231       7.237e+00      -1.185e+01       2.038e-01          -0.181          -0.145          -0.973       1.712e-01          0.5716
 232       7.074e+00      -1.185e+01       2.492e-01          -0.380          -0.255          -0.889       1.167e-01          0.7155
 233       6.990e+00      -1.185e+01       3.138e-01          -0.773          -0.467          -0.428       8.146e-02         -0.3630
 234       6.990e+00      -1.185e+01       3.896e-01          -0.778          -0.444           0.444       8.094e-02         -3.3640
 235       7.074e+00      -1.185e+01       4.543e-01          -0.383          -0.204           0.901       1.159e-01         -3.8927
 236       7.237e+00      -1.185e+01       4.990e-01          -0.176          -0.084           0.981       1.703e-01         -2.1966
 237       7.470e+00      -1.185e+01       5.295e-01          -0.093          -0.039           0.995       2.210e-01         -1.4162
 238       7.759e+00      -1.185e+01       5.485e-01          -0.042          -0.012           0.999       2.602e-01         -1.0498
 239       8.087e+00      -1.185e+01       5.560e-01          -0.005           0.007           1.000       2.850e-01         -0.8367
 240       8.436e+00      -1.185e+01       5.505e-01           0.036           0.025           0.999       2.937e-01         -0.6897
 241       8.784e+00      -1.185e+01       5.292e-01           0.087           0.047           0.995       2.863e-01         -0.5339
 242       9.112e+00      -1.185e+01       4.940e-01           0.128           0.063           0.990       2.624e-01         -0.3597
 243       9.401e+00      -1.185e+01       4.529e-01           0.155           0.072           0.985       2.229e-01         -0.2079
 244       9.634e+00      -1.185e+01       4.140e-01           0.176           0.079           0.981       1.698e-01         -0.0887
 245       9.797e+00      -1.185e+01       3.833e-01           0.197           0.085           0.977       1.065e-01         -0.0194
 246       9.881e+00      -1.185e+01       3.616e-01           0.387           0.139           0.912       3.875e-02          0.1776
Strip 10
 247       9.627e+00      -1.098e+01       3.263e-01           0.026          -0.022          -0.999       4.216e-02          0.1290
 248       9.535e+00      -1.098e+01       3.324e-01          -0.099          -0.059          -0.993       1.247e-01          0.2986
 249       9.358e+00      -1.098e+01       3.353e-01           0.036          -0.017          -0.999       1.987e-01          0.3723
 250       9.104e+00      -1.098e+01       3.082e-01           0.159           0.023          -0.987       2.653e-01          0.3268
 251       8.790e+00      -1.098e+01       2.484e-01           0.210           0.042          -0.977       3.172e-01          0.2184
 252       8.433e+00      -1.098e+01       1.774e-01           0.180           0.030          -0.983       3.456e-01          0.0982
 253       8.054e+00      -1.098e+01       1.256e-01           0.090          -0.008          -0.996       3.512e-01          0.0584
 254       7.674e+00      -1.098e+01       1.056e-01           0.014          -0.044          -0.999       3.399e-01          0.1226
 255       7.317e+00      -1.098e+01       1.099e-01          -0.040          -0.070          -0.997       3.105e-01          0.2329
 256       7.003e+00      -1.098e+01       1.307e-01          -0.096          -0.099          -0.990       2.641e-01          0.3752
 257       6.750e+00      -1.098e+01       1.650e-01          -0.181          -0.145          -0.973       2.039e-01          0.5644
 258       6.572e+00      -1.098e+01       2.143e-01          -0.380          -0.255          -0.889       1.390e-01          0.7201
 259       6.481e+00      -1.098e+01       2.846e-01          -0.773          -0.467          -0.429       9.702e-02         -0.3048
 260       6.481e+00      -1.098e+01       3.672e-01          -0.779          -0.445           0.443       9.633e-02         -3.2567
 261       6.572e+00      -1.098e+01       4.375e-01          -0.383          -0.204           0.901       1.380e-01         -3.8103
 262       6.750e+00      -1.098e+01       4.862e-01          -0.176          -0.084           0.981       2.027e-01         -2.1581
 263       7.003e+00      -1.098e+01       5.193e-01          -0.093          -0.039           0.995       2.631e-01         -1.3954
 264       7.317e+00      -1.098e+01       5.401e-01          -0.042          -0.012           0.999       3.098e-01         -1.0371
 265       7.674e+00      -1.098e+01       5.482e-01          -0.005           0.007           1.000       3.393e-01         -0.8287
 266       8.054e+00      -1.098e+01       5.422e-01           0.036           0.025           0.999       3.497e-01         -0.6847
 267       8.433e+00      -1.098e+01       5.190e-01           0.087           0.047           0.995       3.408e-01         -0.5310
 268       8.790e+00      -1.098e+01       4.807e-01           0.128           0.063           0.990       3.125e-01         -0.3581
 269       9.104e+00      -1.098e+01       4.360e-01           0.155           0.072           0.985       2.654e-01         -0.2069
 270       9.358e+00      -1.098e+01       3.937e-01           0.176           0.079           0.981       2.022e-01         -0.0880
 271       9.535e+00      -1.098e+01       3.603e-01           0.197           0.085           0.977       1.268e-01         -0.0187
 272       9.627e+00      -1.098e+01       3.367e-01           0.387           0.139           0.912       4.615e-02          0.1777
Strip 11
 273       9.350e+00      -1.004e+01       2.983e-01           0.026          -0.022          -0.999       4.950e-02          0.1297
 274       9.251e+00      -1.004e+01       3.050e-01          -0.099          -0.059          -0.993       1.465e-01          0.2997
 275       9.058e+00      -1.004e+01       3.081e-01           0.036          -0.017          -0.999       2.334e-01          0.3737
 276       8.782e+00      -1.004e+01       2.787e-01           0.159           0.023          -0.987       3.114e-01          0.3279
 277       8.440e+00      -1.004e+01       2.135e-01           0.210           0.042          -0.977       3.724e-01          0.2184
 278       8.051e+00      -1.004e+01       1.363e-01           0.181           0.030          -0.983       4.057e-01          0.0961
 279       7.639e+00      -1.004e+01       7.995e-02           0.090          -0.008          -0.996       4.124e-01          0.0541
 280       7.226e+00      -1.004e+01       5.812e-02           0.014          -0.044          -0.999       3.990e-01          0.1164
 281       6.838e+00      -1.004e+01       6.280e-02          -0.040          -0.070          -0.997       3.646e-01          0.2249
 282       6.496e+00      -1.004e+01       8.552e-02          -0.096          -0.099          -0.990       3.101e-01          0.3653
 283       6.220e+00      -1.004e+01       1.228e-01          -0.181          -0.145          -0.973       2.394e-01          0.5539
 284       6.027e+00      -1.004e+01       1.765e-01          -0.380          -0.255          -0.889       1.633e-01          0.7239
 285       5.927e+00      -1.004e+01       2.530e-01          -0.773          -0.467          -0.430       1.140e-01         -0.2350
 286       5.927e+00      -1.004e+01       3.428e-01          -0.779          -0.445           0.442       1.131e-01         -3.1229
 287       6.027e+00      -1.004e+01       4.193e-01          -0.383          -0.204           0.901       1.619e-01         -3.7053
 288       6.220e+00      -1.004e+01       4.723e-01          -0.176          -0.084           0.981       2.379e-01         -2.1082
 289       6.496e+00      -1.003e+01       5.083e-01          -0.093          -0.039           0.995       3.089e-01         -1.3671
 290       6.838e+00      -1.003e+01       5.309e-01          -0.042          -0.012           0.999       3.638e-01         -1.0187
 291       7.226e+00      -1.003e+01       5.398e-01          -0.005           0.007           1.000       3.984e-01         -0.8161
 292       7.639e+00      -1.003e+01       5.332e-01           0.036           0.025           0.999       4.107e-01         -0.6759
 293       8.051e+00      -1.003e+01       5.080e-01           0.087           0.047           0.995       4.002e-01         -0.5250
 294       8.440e+00      -1.004e+01       4.664e-01           0.128           0.063           0.990       3.669e-01         -0.3541
 295       8.782e+00      -1.004e+01       4.177e-01           0.155           0.072           0.985       3.116e-01         -0.2043
 296       9.058e+00      -1.004e+01       3.716e-01           0.176           0.079           0.981       2.375e-01         -0.0863
 297       9.251e+00      -1.004e+01       3.353e-01           0.197           0.085           0.977       1.489e-01         -0.0177
 298       9.350e+00      -1.004e+01       3.096e-01           0.387           0.139           0.912       5.420e-02          0.1778
Strip 12
 299       9.054e+00      -9.024e+00       2.683e-01           0.026          -0.022          -0.999       5.738e-02          0.1299
 300       8.946e+00      -9.024e+00       2.755e-01          -0.099          -0.059          -0.993       1.698e-01          0.3004
 301       8.736e+00      -9.024e+00       2.789e-01           0.036          -0.017          -0.999       2.705e-01          0.3744
 302       8.436e+00      -9.024e+00       2.469e-01           0.159           0.023          -0.987       3.609e-01          0.3281
 303       8.065e+00      -9.025e+00       1.762e-01           0.210           0.042          -0.977       4.316e-01          0.2171
 304       7.642e+00      -9.026e+00       9.222e-02           0.181           0.030          -0.983       4.702e-01          0.0923
 305       7.194e+00      -9.026e+00       3.097e-02           0.090          -0.008          -0.996       4.779e-01          0.0477
 306       6.746e+00      -9.026e+00       7.244e-03           0.014          -0.044          -0.999       4.625e-01          0.1079
 307       6.323e+00      -9.026e+00       1.233e-02          -0.040          -0.070          -0.997       4.226e-01          0.2144
 308       5.951e+00      -9.026e+00       3.702e-02          -0.096          -0.099          -0.990       3.594e-01          0.3528
 309       5.652e+00      -9.026e+00       7.752e-02          -0.180          -0.145          -0.973       2.776e-01          0.5407
 310       5.442e+00      -9.025e+00       1.358e-01          -0.380          -0.255          -0.889       1.893e-01          0.7265
 311       5.334e+00      -9.024e+00       2.190e-01          -0.773          -0.467          -0.430       1.321e-01         -0.1571
 312       5.334e+00      -9.024e+00       3.166e-01          -0.779          -0.445           0.442       1.310e-01         -2.9691
 313       5.442e+00      -9.023e+00       3.998e-01          -0.383          -0.204           0.901       1.876e-01         -3.5827
 314       5.652e+00      -9.022e+00       4.574e-01          -0.176          -0.084           0.981       2.757e-01         -2.0490
 315       5.951e+00      -9.022e+00       4.966e-01          -0.093          -0.039           0.995       3.580e-01         -1.3329
 316       6.323e+00      -9.022e+00       5.211e-01          -0.042          -0.012           0.999       4.216e-01         -0.9961
 317       6.746e+00      -9.022e+00       5.307e-01          -0.005           0.007           1.000       4.618e-01         -0.8001
 318       7.194e+00      -9.022e+00       5.236e-01           0.036           0.025           0.999       4.760e-01         -0.6643
 319       7.642e+00      -9.022e+00       4.962e-01           0.087           0.047           0.995       4.639e-01         -0.5168
 320       8.065e+00      -9.023e+00       4.509e-01           0.128           0.063           0.990       4.253e-01         -0.3486
 321       8.436e+00      -9.023e+00       3.980e-01           0.155           0.072           0.985       3.612e-01         -0.2006
 322       8.736e+00      -9.023e+00       3.480e-01           0.176           0.079           0.981       2.753e-01         -0.0840
 323       8.946e+00      -9.024e+00       3.085e-01           0.197           0.085           0.977       1.726e-01         -0.0164
 324       9.054e+00      -9.024e+00       2.806e-01           0.387           0.139           0.912       6.283e-02          0.1779
Strip 13
 325       8.739e+00      -7.950e+00       2.364e-01           0.026          -0.022          -0.999       6.569e-02          0.1299
 326       8.622e+00      -7.949e+00       2.443e-01          -0.099          -0.059          -0.993       1.944e-01          0.3007
 327       8.395e+00      -7.949e+00       2.480e-01           0.036          -0.017          -0.999       3.097e-01          0.3747
 328       8.070e+00      -7.950e+00       2.133e-01           0.159           0.023          -0.987       4.132e-01          0.3278
 329       7.666e+00      -7.950e+00       1.365e-01           0.210           0.042          -0.977       4.941e-01          0.2150
 330       7.208e+00      -7.951e+00       4.544e-02           0.181           0.030          -0.983       5.383e-01          0.0873
 331       6.722e+00      -7.951e+00      -2.100e-02           0.091          -0.008          -0.996       5.472e-01          0.0396
 332       6.236e+00      -7.951e+00      -4.673e-02           0.014          -0.044          -0.999       5.295e-01          0.0975
 333       5.777e+00      -7.951e+00      -4.122e-02          -0.040          -0.070          -0.997       4.839e-01          0.2019
 334       5.374e+00      -7.951e+00      -1.443e-02          -0.096          -0.099          -0.990       4.116e-01          0.3380
 335       5.049e+00      -7.951e+00       2.950e-02          -0.180          -0.145          -0.973       3.179e-01          0.5248
 336       4.822e+00      -7.950e+00       9.277e-02          -0.380          -0.255          -0.889       2.168e-01          0.7272
 337       4.704e+00      -7.950e+00       1.830e-01          -0.772          -0.467          -0.431       1.513e-01         -0.0738
 338       4.704e+00      -7.949e+00       2.889e-01          -0.779          -0.445           0.441       1.499e-01         -2.7983
 339       4.822e+00      -7.949e+00       3.791e-01          -0.383          -0.204           0.901       2.147e-01         -3.4444
 340       5.049e+00      -7.948e+00       4.416e-01          -0.176          -0.084           0.981       3.156e-01         -1.9821
 341       5.374e+00      -7.948e+00       4.841e-01          -0.093          -0.039           0.995       4.098e-01         -1.2942
 342       5.777e+00      -7.948e+00       5.107e-01          -0.042          -0.012           0.999       4.827e-01         -0.9702
 343       6.236e+00      -7.948e+00       5.211e-01          -0.005           0.007           1.000       5.287e-01         -0.7816
 344       6.722e+00      -7.948e+00       5.134e-01           0.036           0.025           0.999       5.450e-01         -0.6506
 345       7.208e+00      -7.948e+00       4.837e-01           0.087           0.047           0.995       5.312e-01         -0.5070
 346       7.666e+00      -7.948e+00       4.346e-01           0.128           0.063           0.990       4.870e-01         -0.3419
 347       8.070e+00      -7.949e+00       3.772e-01           0.155           0.072           0.985       4.136e-01         -0.1962
 348       8.395e+00      -7.949e+00       3.229e-01           0.176           0.079           0.981       3.152e-01         -0.0813
 349       8.622e+00      -7.949e+00       2.800e-01           0.197           0.085           0.977       1.977e-01         -0.0150
 350       8.739e+00      -7.949e+00       2.498e-01           0.386           0.139           0.912       7.195e-02          0.1779
Strip 14
 351       8.409e+00      -6.821e+00       2.029e-01           0.026          -0.022          -0.999       7.434e-02          0.1297
 352       8.282e+00      -6.821e+00       2.115e-01          -0.099          -0.059          -0.993       2.200e-01          0.3008
 353       8.036e+00      -6.821e+00       2.155e-01           0.036          -0.017          -0.999       3.504e-01          0.3747
 354       7.684e+00      -6.821e+00       1.779e-01           0.159           0.023          -0.987       4.675e-01          0.3270
 355       7.248e+00      -6.821e+00       9.483e-02           0.210           0.042          -0.977       5.590e-01          0.2123
 356       6.752e+00      -6.822e+00      -3.699e-03           0.181           0.030          -0.983       6.091e-01          0.0813
 357       6.226e+00      -6.822e+00      -7.559e-02           0.091          -0.008          -0.996       6.192e-01          0.0302
 358       5.700e+00      -6.822e+00      -1.034e-01           0.014          -0.044          -0.999       5.992e-01          0.0856
 359       5.204e+00      -6.822e+00      -9.747e-02          -0.040          -0.070          -0.997       5.476e-01          0.1876
 360       4.768e+00      -6.822e+00      -6.849e-02          -0.096          -0.099          -0.990       4.658e-01          0.3210
 361       4.416e+00      -6.822e+00      -2.095e-02          -0.180          -0.145          -0.973       3.597e-01          0.5061
 362       4.170e+00      -6.822e+00       4.751e-02          -0.380          -0.255          -0.889       2.454e-01          0.7253
 363       4.043e+00      -6.821e+00       1.451e-01          -0.772          -0.467          -0.431       1.713e-01          0.0138
 364       4.043e+00      -6.820e+00       2.597e-01          -0.780          -0.445           0.440       1.696e-01         -2.6123
 365       4.170e+00      -6.820e+00       3.574e-01          -0.383          -0.204           0.901       2.429e-01         -3.2917
 366       4.416e+00      -6.819e+00       4.249e-01          -0.176          -0.084           0.981       3.571e-01         -1.9078
 367       4.768e+00      -6.819e+00       4.709e-01          -0.093          -0.039           0.995       4.637e-01         -1.2510
 368       5.204e+00      -6.819e+00       4.997e-01          -0.042          -0.012           0.999       5.462e-01         -0.9412
 369       5.700e+00      -6.819e+00       5.110e-01          -0.005           0.007           1.000       5.983e-01         -0.7608
 370       6.226e+00      -6.819e+00       5.027e-01           0.036           0.025           0.999       6.167e-01         -0.6354
 371       6.752e+00      -6.819e+00       4.705e-01           0.087           0.047           0.995       6.011e-01         -0.4962
 372       7.248e+00      -6.820e+00       4.174e-01           0.128           0.063           0.990       5.511e-01         -0.3346
 373       7.684e+00      -6.820e+00       3.553e-01           0.155           0.072           0.985       4.681e-01         -0.1915
 374       8.036e+00      -6.820e+00       2.965e-01           0.176           0.079           0.981       3.567e-01         -0.0784
 375       8.282e+00      -6.820e+00       2.501e-01           0.197           0.085           0.977       2.237e-01         -0.0137
 376       8.409e+00      -6.821e+00       2.174e-01           0.386           0.139           0.912       8.143e-02          0.1778
Strip 15
 377       8.065e+00      -5.645e+00       1.681e-01           0.026          -0.022          -0.999       8.317e-02          0.1291
 378       7.928e+00      -5.645e+00       1.773e-01          -0.099          -0.059          -0.993       2.461e-01          0.3006
 379       7.662e+00      -5.645e+00       1.816e-01           0.036          -0.017          -0.999       3.920e-01          0.3745
 380       7.283e+00      -5.645e+00       1.411e-01           0.159           0.023          -0.987       5.231e-01          0.3260
 381       6.812e+00      -5.646e+00       5.145e-02           0.210           0.042          -0.977       6.254e-01          0.2091
 382       6.278e+00      -5.646e+00      -5.487e-02           0.181           0.030          -0.983       6.814e-01          0.0745
 383       5.710e+00      -5.646e+00      -1.324e-01           0.091          -0.008          -0.996       6.927e-01          0.0198
 384       5.142e+00      -5.647e+00      -1.625e-01           0.014          -0.044          -0.999       6.704e-01          0.0723
 385       4.607e+00      -5.647e+00      -1.560e-01          -0.040          -0.070          -0.997       6.127e-01          0.1716
 386       4.136e+00      -5.646e+00      -1.248e-01          -0.096          -0.099          -0.990       5.211e-01          0.3018
 387       3.757e+00      -5.646e+00      -7.348e-02          -0.180          -0.145          -0.973       4.025e-01          0.4845
 388       3.491e+00      -5.646e+00       3.894e-04          -0.380          -0.255          -0.889       2.747e-01          0.7201
 389       3.354e+00      -5.645e+00       1.057e-01          -0.772          -0.467          -0.432       1.917e-01          0.1054
 390       3.354e+00      -5.645e+00       2.294e-01          -0.780          -0.445           0.440       1.897e-01         -2.4097
 391       3.491e+00      -5.645e+00       3.347e-01          -0.384          -0.204           0.901       2.717e-01         -3.1228
 392       3.757e+00      -5.644e+00       4.076e-01          -0.176          -0.084           0.981       3.995e-01         -1.8252
 393       4.136e+00      -5.644e+00       4.572e-01          -0.093          -0.039           0.995       5.188e-01         -1.2029
 394       4.607e+00      -5.644e+00       4.883e-01          -0.042          -0.012           0.999       6.111e-01         -0.9093
 395       5.142e+00      -5.644e+00       5.005e-01          -0.005           0.007           1.000       6.694e-01         -0.7383
 396       5.710e+00      -5.644e+00       4.915e-01           0.036           0.025           0.999       6.900e-01         -0.6191
 397       6.278e+00      -5.644e+00       4.568e-01           0.087           0.047           0.995       6.726e-01         -0.4847
 398       6.812e+00      -5.644e+00       3.994e-01           0.128           0.063           0.990       6.166e-01         -0.3271
 399       7.283e+00      -5.645e+00       3.324e-01           0.155           0.072           0.985       5.237e-01         -0.1867
 400       7.662e+00      -5.645e+00       2.691e-01           0.176           0.079           0.981       3.991e-01         -0.0757
 401       7.928e+00      -5.645e+00       2.190e-01           0.197           0.085           0.977       2.503e-01         -0.0126
 402       8.065e+00      -5.645e+00       1.837e-01           0.386           0.139           0.912       9.111e-02          0.1773
Strip 16
 403       7.710e+00      -4.431e+00       1.321e-01           0.026          -0.022          -0.999       9.203e-02          0.1281
 404       7.563e+00      -4.431e+00       1.420e-01          -0.099          -0.059          -0.993       2.723e-01          0.3002
 405       7.277e+00      -4.431e+00       1.467e-01           0.036          -0.017          -0.999       4.338e-01          0.3742
 406       6.869e+00      -4.431e+00       1.031e-01           0.159           0.023          -0.987       5.788e-01          0.3247
 407       6.362e+00      -4.432e+00       6.638e-03           0.210           0.042          -0.977       6.919e-01          0.2054
 408       5.787e+00      -4.432e+00      -1.077e-01           0.181           0.030          -0.983       7.539e-01          0.0669
 409       5.176e+00      -4.432e+00      -1.911e-01           0.091          -0.008          -0.996       7.665e-01          0.0083
 410       4.566e+00      -4.432e+00      -2.235e-01           0.014          -0.044          -0.999       7.418e-01          0.0579
 411       3.991e+00      -4.432e+00      -2.165e-01          -0.040          -0.070          -0.997       6.780e-01          0.1541
 412       3.484e+00      -4.432e+00      -1.829e-01          -0.096          -0.099          -0.990       5.767e-01          0.2806
 413       3.076e+00      -4.432e+00      -1.277e-01          -0.180          -0.145          -0.973       4.455e-01          0.4596
 414       2.790e+00      -4.432e+00      -4.828e-02          -0.379          -0.255          -0.889       3.040e-01          0.7107
 415       2.643e+00      -4.431e+00       6.504e-02          -0.772          -0.467          -0.432       2.122e-01          0.2019
 416       2.643e+00      -4.431e+00       1.980e-01          -0.780          -0.446           0.440       2.099e-01         -2.1857
 417       2.790e+00      -4.431e+00       3.113e-01          -0.384          -0.204           0.901       3.006e-01         -2.9320
 418       3.076e+00      -4.430e+00       3.897e-01          -0.176          -0.084           0.981       4.420e-01         -1.7311
 419       3.484e+00      -4.430e+00       4.431e-01          -0.093          -0.039           0.995       5.740e-01         -1.1488
 420       3.991e+00      -4.430e+00       4.766e-01          -0.042          -0.012           0.999       6.762e-01         -0.8740
 421       4.566e+00      -4.430e+00       4.896e-01          -0.005           0.007           1.000       7.407e-01         -0.7141
 422       5.176e+00      -4.430e+00       4.799e-01           0.036           0.025           0.999       7.636e-01         -0.6024
 423       5.787e+00      -4.430e+00       4.426e-01           0.087           0.047           0.995       7.442e-01         -0.4737
 424       6.362e+00      -4.430e+00       3.809e-01           0.128           0.063           0.990       6.824e-01         -0.3202
 425       6.869e+00      -4.431e+00       3.089e-01           0.155           0.072           0.985       5.795e-01         -0.1826
 426       7.277e+00      -4.431e+00       2.407e-01           0.176           0.079           0.981       4.417e-01         -0.0736
 427       7.563e+00      -4.431e+00       1.869e-01           0.197           0.085           0.977       2.770e-01         -0.0121
 428       7.710e+00      -4.431e+00       1.489e-01           0.386           0.139           0.912       1.008e-01          0.1760
Strip 17
 429       7.346e+00      -3.187e+00       9.521e-02           0.026          -0.022          -0.999       1.007e-01          0.1264
 430       7.188e+00      -3.187e+00       1.059e-01          -0.099          -0.059          -0.993       2.981e-01          0.2994
 431       6.881e+00      -3.187e+00       1.108e-01           0.036          -0.017          -0.999       4.749e-01          0.3735
 432       6.444e+00      -3.187e+00       6.407e-02           0.159           0.023          -0.987       6.335e-01          0.3231
 433       5.901e+00      -3.187e+00      -3.929e-02           0.210           0.042          -0.977       7.574e-01          0.2011
 434       5.285e+00      -3.187e+00      -1.619e-01           0.181           0.030          -0.983       8.252e-01          0.0585
 435       4.630e+00      -3.188e+00      -2.513e-01           0.091          -0.008          -0.996       8.390e-01         -0.0040
 436       3.975e+00      -3.188e+00      -2.860e-01           0.014          -0.044          -0.999       8.121e-01          0.0430
 437       3.359e+00      -3.188e+00      -2.785e-01          -0.040          -0.070          -0.997       7.422e-01          0.1361
 438       2.816e+00      -3.188e+00      -2.425e-01          -0.096          -0.099          -0.990       6.314e-01          0.2580
 439       2.378e+00      -3.188e+00      -1.833e-01          -0.180          -0.145          -0.973       4.877e-01          0.4315
 440       2.072e+00      -3.187e+00      -9.816e-02          -0.379          -0.255          -0.890       3.329e-01          0.6962
 441       1.914e+00      -3.187e+00       2.332e-02          -0.772          -0.467          -0.433       2.323e-01          0.3066
 442       1.914e+00      -3.187e+00       1.659e-01          -0.780          -0.446           0.439       2.297e-01         -1.9278
 443       2.072e+00      -3.187e+00       2.873e-01          -0.384          -0.204           0.901       3.290e-01         -2.7058
 444       2.378e+00      -3.186e+00       3.714e-01          -0.176          -0.084           0.981       4.838e-01         -1.6187
 445       2.816e+00      -3.186e+00       4.286e-01          -0.093          -0.039           0.995       6.284e-01         -1.0849
 446       3.359e+00      -3.186e+00       4.645e-01          -0.042          -0.012           0.999       7.402e-01         -0.8341
 447       3.975e+00      -3.186e+00       4.785e-01          -0.005           0.007           1.000       8.109e-01         -0.6888
 448       4.630e+00      -3.186e+00       4.681e-01           0.036           0.025           0.999       8.359e-01         -0.5868
 449       5.285e+00      -3.186e+00       4.281e-01           0.087           0.047           0.995       8.148e-01         -0.4650
 450       5.901e+00      -3.186e+00       3.620e-01           0.128           0.063           0.990       7.471e-01         -0.3160
 451       6.444e+00      -3.187e+00       2.847e-01           0.155           0.072           0.985       6.345e-01         -0.1809
 452       6.881e+00      -3.187e+00       2.116e-01           0.176           0.079           0.981       4.835e-01         -0.0733
 453       7.188e+00      -3.187e+00       1.540e-01           0.197           0.085           0.977       3.032e-01         -0.0130
 454       7.346e+00      -3.187e+00       1.132e-01           0.386           0.139           0.912       1.104e-01          0.1736
Strip 18
 455       6.975e+00      -1.921e+00       5.767e-02           0.026          -0.022          -0.999       1.091e-01          0.1237
 456       6.807e+00      -1.921e+00       6.905e-02          -0.099          -0.059          -0.993       3.230e-01          0.2979
 457       6.479e+00      -1.921e+00       7.436e-02           0.036          -0.017          -0.999       5.144e-01          0.3723
 458       6.012e+00      -1.921e+00       2.441e-02           0.159           0.023          -0.987       6.862e-01          0.3204
 459       5.432e+00      -1.921e+00      -8.602e-02           0.210           0.042          -0.977       8.204e-01          0.1951
 460       4.773e+00      -1.921e+00      -2.170e-01           0.181           0.030          -0.983       8.938e-01          0.0485
 461       4.074e+00      -1.921e+00      -3.125e-01           0.091          -0.008          -0.996       9.088e-01         -0.0162
 462       3.374e+00      -1.921e+00      -3.496e-01           0.014          -0.044          -0.999       8.796e-01          0.0302
 463       2.716e+00      -1.921e+00      -3.416e-01          -0.040          -0.070          -0.997       8.040e-01          0.1214
 464       2.136e+00      -1.921e+00      -3.031e-01          -0.096          -0.099          -0.990       6.839e-01          0.2378
 465       1.668e+00      -1.921e+00      -2.399e-01          -0.180          -0.145          -0.973       5.283e-01          0.4026
 466       1.341e+00      -1.921e+00      -1.489e-01          -0.379          -0.255          -0.890       3.606e-01          0.6777
 467       1.172e+00      -1.921e+00      -1.913e-02          -0.771          -0.466          -0.433       2.517e-01          0.4317
 468       1.172e+00      -1.921e+00       1.332e-01          -0.780          -0.446           0.439       2.488e-01         -1.6042
 469       1.341e+00      -1.921e+00       2.629e-01          -0.384          -0.204           0.901       3.563e-01         -2.4095
 470       1.668e+00      -1.921e+00       3.528e-01          -0.176          -0.084           0.981       5.240e-01         -1.4697
 471       2.136e+00      -1.921e+00       4.139e-01          -0.093          -0.039           0.995       6.806e-01         -1.0025
 472       2.716e+00      -1.920e+00       4.522e-01          -0.042          -0.012           0.999       8.018e-01         -0.7864
 473       3.374e+00      -1.920e+00       4.672e-01          -0.005           0.007           1.000       8.783e-01         -0.6631
 474       4.074e+00      -1.920e+00       4.561e-01           0.036           0.025           0.999       9.054e-01         -0.5758
 475       4.773e+00      -1.921e+00       4.133e-01           0.087           0.047           0.995       8.826e-01         -0.4636
 476       5.432e+00      -1.921e+00       3.427e-01           0.128           0.063           0.990       8.092e-01         -0.3196
 477       6.012e+00      -1.921e+00       2.602e-01           0.155           0.072           0.985       6.873e-01         -0.1857
 478       6.479e+00      -1.921e+00       1.821e-01           0.176           0.079           0.981       5.238e-01         -0.0777
 479       6.807e+00      -1.921e+00       1.204e-01           0.197           0.085           0.977       3.285e-01         -0.0172
 480       6.975e+00      -1.921e+00       7.690e-02           0.386           0.139           0.912       1.196e-01          0.1690
Strip 19
 481       6.601e+00      -6.418e-01       1.975e-02           0.026          -0.022          -0.999       1.170e-01          0.1205
 482       6.421e+00      -6.418e-01       3.187e-02          -0.099          -0.059          -0.993       3.462e-01          0.2964
 483       6.073e+00      -6.418e-01       3.751e-02           0.036          -0.017          -0.999       5.514e-01          0.3699
 484       5.575e+00      -6.418e-01      -1.566e-02           0.159           0.023          -0.987       7.356e-01          0.3115
 485       4.958e+00      -6.418e-01      -1.332e-01           0.210           0.042          -0.977       8.794e-01          0.1781
 486       4.257e+00      -6.419e-01      -2.727e-01           0.181           0.030          -0.983       9.581e-01          0.0303
 487       3.512e+00      -6.419e-01      -3.744e-01           0.091          -0.008          -0.996       9.742e-01         -0.0251
 488       2.767e+00      -6.419e-01      -4.138e-01           0.014          -0.044          -0.999       9.429e-01          0.0327
 489       2.066e+00      -6.419e-01      -4.054e-01          -0.040          -0.070          -0.997       8.618e-01          0.1287
 490       1.448e+00      -6.419e-01      -3.644e-01          -0.096          -0.099          -0.990       7.332e-01          0.2402
 491       9.511e-01      -6.419e-01      -2.971e-01          -0.180          -0.145          -0.973       5.664e-01          0.3936
 492       6.024e-01      -6.419e-01      -2.002e-01          -0.379          -0.255          -0.890       3.866e-01          0.6568
 493       4.229e-01      -6.418e-01      -6.202e-02          -0.771          -0.466          -0.433       2.698e-01          0.5792
 494       4.229e-01      -6.417e-01       1.001e-01          -0.780          -0.446           0.439       2.667e-01         -1.0977
 495       6.024e-01      -6.417e-01       2.383e-01          -0.384          -0.204           0.901       3.819e-01         -1.8861
 496       9.511e-01      -6.417e-01       3.339e-01          -0.176          -0.084           0.981       5.617e-01         -1.1967
 497       1.448e+00      -6.416e-01       3.990e-01          -0.093          -0.039           0.995       7.296e-01         -0.8700
 498       2.066e+00      -6.416e-01       4.398e-01          -0.042          -0.012           0.999       8.595e-01         -0.7261
 499       2.767e+00      -6.416e-01       4.557e-01          -0.005           0.007           1.000       9.415e-01         -0.6398
 500       3.512e+00      -6.416e-01       4.439e-01           0.036           0.025           0.999       9.706e-01         -0.5783
 501       4.257e+00      -6.416e-01       3.984e-01           0.087           0.047           0.995       9.461e-01         -0.4844
 502       4.958e+00      -6.417e-01       3.232e-01           0.128           0.063           0.990       8.675e-01         -0.3481
 503       5.575e+00      -6.417e-01       2.353e-01           0.155           0.072           0.985       7.368e-01         -0.2115
 504       6.073e+00      -6.417e-01       1.522e-01           0.176           0.079           0.981       5.615e-01         -0.0965
 505       6.421e+00      -6.417e-01       8.657e-02           0.197           0.085           0.977       3.521e-01         -0.0294
 506       6.601e+00      -6.418e-01       4.022e-02           0.386           0.139           0.912       1.282e-01          0.1601
Strip 20
 507       6.601e+00       6.418e-01       1.975e-02           0.026           0.022          -0.999       1.170e-01          0.1205
 508       6.421e+00       6.418e-01       3.187e-02          -0.099           0.059          -0.993       3.462e-01          0.2964
 509       6.073e+00       6.418e-01       3.751e-02           0.036           0.017          -0.999       5.514e-01          0.3699
 510       5.575e+00       6.418e-01      -1.566e-02           0.159          -0.023          -0.987       7.356e-01          0.3115
 511       4.958e+00       6.418e-01      -1.332e-01           0.210          -0.042          -0.977       8.794e-01          0.1781
 512       4.257e+00       6.419e-01      -2.727e-01           0.181          -0.030          -0.983       9.581e-01          0.0303
 513       3.512e+00       6.419e-01      -3.744e-01           0.091           0.008          -0.996       9.742e-01         -0.0251
 514       2.767e+00       6.419e-01      -4.138e-01           0.014           0.044          -0.999       9.429e-01          0.0327
 515       2.066e+00       6.419e-01      -4.054e-01          -0.040           0.070          -0.997       8.618e-01          0.1287
 516       1.448e+00       6.419e-01      -3.644e-01          -0.096           0.099          -0.990       7.332e-01          0.2402
 517       9.511e-01       6.419e-01      -2.971e-01          -0.180           0.145          -0.973       5.664e-01          0.3936
 518       6.024e-01       6.419e-01      -2.002e-01          -0.379           0.255          -0.890       3.866e-01          0.6568
 519       4.229e-01       6.418e-01      -6.202e-02          -0.771           0.466          -0.433       2.698e-01          0.5792
 520       4.229e-01       6.417e-01       1.001e-01          -0.780           0.446           0.439       2.667e-01         -1.0977
 521       6.024e-01       6.417e-01       2.383e-01          -0.384           0.204           0.901       3.819e-01         -1.8861
 522       9.511e-01       6.417e-01       3.339e-01          -0.176           0.084           0.981       5.617e-01         -1.1967
 523       1.448e+00       6.416e-01       3.990e-01          -0.093           0.039           0.995       7.296e-01         -0.8700
 524       2.066e+00       6.416e-01       4.398e-01          -0.042           0.012           0.999       8.595e-01         -0.7261
 525       2.767e+00       6.416e-01       4.557e-01          -0.005          -0.007           1.000       9.415e-01         -0.6398
 526       3.512e+00       6.416e-01       4.439e-01           0.036          -0.025           0.999       9.706e-01         -0.5783
 527       4.257e+00       6.416e-01       3.984e-01           0.087          -0.047           0.995       9.461e-01         -0.4844
 528       4.958e+00       6.417e-01       3.232e-01           0.128          -0.063           0.990       8.675e-01         -0.3481
 529       5.575e+00       6.417e-01       2.353e-01           0.155          -0.072           0.985       7.368e-01         -0.2115
 530       6.073e+00       6.417e-01       1.522e-01           0.176          -0.079           0.981       5.615e-01         -0.0965
 531       6.421e+00       6.417e-01       8.657e-02           0.197          -0.085           0.977       3.521e-01         -0.0294
 532       6.601e+00       6.418e-01       4.022e-02           0.386          -0.139           0.912       1.282e-01          0.1601
Strip 21
 533       6.975e+00       1.921e+00       5.767e-02           0.026           0.022          -0.999       1.091e-01          0.1237
 534       6.807e+00       1.921e+00       6.905e-02          -0.099           0.059          -0.993       3.230e-01          0.2979
 535       6.479e+00       1.921e+00       7.436e-02           0.036           0.017          -0.999       5.144e-01          0.3723
 536       6.012e+00       1.921e+00       2.441e-02           0.159          -0.023          -0.987       6.862e-01          0.3204
 537       5.432e+00       1.921e+00      -8.602e-02           0.210          -0.042          -0.977       8.204e-01          0.1951
 538       4.773e+00       1.921e+00      -2.170e-01           0.181          -0.030          -0.983       8.938e-01          0.0485
 539       4.074e+00       1.921e+00      -3.125e-01           0.091           0.008          -0.996       9.088e-01         -0.0162
 540       3.374e+00       1.921e+00      -3.496e-01           0.014           0.044          -0.999       8.796e-01          0.0302
 541       2.716e+00       1.921e+00      -3.416e-01          -0.040           0.070          -0.997       8.040e-01          0.1214
 542       2.136e+00       1.921e+00      -3.031e-01          -0.096           0.099          -0.990       6.839e-01          0.2378
 543       1.668e+00       1.921e+00      -2.399e-01          -0.180           0.145          -0.973       5.283e-01          0.4026
 544       1.341e+00       1.921e+00      -1.489e-01          -0.379           0.255          -0.890       3.606e-01          0.6777
 545       1.172e+00       1.921e+00      -1.913e-02          -0.771           0.466          -0.433       2.517e-01          0.4317
 546       1.172e+00       1.921e+00       1.332e-01          -0.780           0.446           0.439       2.488e-01         -1.6042
 547       1.341e+00       1.921e+00       2.629e-01          -0.384           0.204           0.901       3.563e-01         -2.4095
 548       1.668e+00       1.921e+00       3.528e-01          -0.176           0.084           0.981       5.240e-01         -1.4697
 549       2.136e+00       1.921e+00       4.139e-01          -0.093           0.039           0.995       6.806e-01         -1.0025
 550       2.716e+00       1.920e+00       4.522e-01          -0.042           0.012           0.999       8.018e-01         -0.7864
 551       3.374e+00       1.920e+00       4.672e-01          -0.005          -0.007           1.000       8.783e-01         -0.6631
 552       4.074e+00       1.920e+00       4.561e-01           0.036          -0.025           0.999       9.054e-01         -0.5758
 553       4.773e+00       1.921e+00       4.133e-01           0.087          -0.047           0.995       8.826e-01         -0.4636
 554       5.432e+00       1.921e+00       3.427e-01           0.128          -0.063           0.990       8.092e-01         -0.3196
 555       6.012e+00       1.921e+00       2.602e-01           0.155          -0.072           0.985       6.873e-01         -0.1857
 556       6.479e+00       1.921e+00       1.821e-01           0.176          -0.079           0.981       5.238e-01         -0.0777
 557       6.807e+00       1.921e+00       1.204e-01           0.197          -0.085           0.977       3.285e-01         -0.0172
 558       6.975e+00       1.921e+00       7.690e-02           0.386          -0.139           0.912       1.196e-01          0.1690
Strip 22
 559       7.346e+00       3.187e+00       9.521e-02           0.026           0.022          -0.999       1.007e-01          0.1264
 560       7.188e+00       3.187e+00       1.059e-01          -0.099           0.059          -0.993       2.981e-01          0.2994
 561       6.881e+00       3.187e+00       1.108e-01           0.036           0.017          -0.999       4.749e-01          0.3735
 562       6.444e+00       3.187e+00       6.407e-02           0.159          -0.023          -0.987       6.335e-01          0.3231
 563       5.901e+00       3.187e+00      -3.929e-02           0.210          -0.042          -0.977       7.574e-01          0.2011
 564       5.285e+00       3.187e+00      -1.619e-01           0.181          -0.030          -0.983       8.252e-01          0.0585
 565       4.630e+00       3.188e+00      -2.513e-01           0.091           0.008          -0.996       8.390e-01         -0.0040
 566       3.975e+00       3.188e+00      -2.860e-01           0.014           0.044          -0.999       8.121e-01          0.0430
 567       3.359e+00       3.188e+00      -2.785e-01          -0.040           0.070          -0.997       7.422e-01          0.1361
 568       2.816e+00       3.188e+00      -2.425e-01          -0.096           0.099          -0.990       6.314e-01          0.2580
[...]
 852       9.084e+00       1.396e+01       2.548e-01           0.014           0.044          -0.999       1.527e-01          0.0959
 853       8.826e+00       1.396e+01       2.579e-01          -0.040           0.070          -0.997       1.394e-01          0.2133
 854       8.599e+00       1.395e+01       2.730e-01          -0.096           0.099          -0.990       1.185e-01          0.3645
 855       8.416e+00       1.395e+01       2.977e-01          -0.181           0.145          -0.973       9.149e-02          0.5611
 856       8.287e+00       1.395e+01       3.334e-01          -0.381           0.255          -0.889       6.233e-02          0.7038
 857       8.221e+00       1.395e+01       3.842e-01          -0.775           0.468          -0.425       4.350e-02         -0.4065
 858       8.221e+00       1.395e+01       4.439e-01          -0.777           0.444           0.446       4.334e-02         -3.4169
 859       8.287e+00       1.395e+01       4.948e-01          -0.382           0.203           0.901       6.207e-02         -3.9148
 860       8.416e+00       1.395e+01       5.300e-01          -0.176           0.084           0.981       9.110e-02         -2.1929
 861       8.599e+00       1.395e+01       5.539e-01          -0.093           0.039           0.995       1.182e-01         -1.3992
 862       8.826e+00       1.395e+01       5.689e-01          -0.042           0.012           0.999       1.392e-01         -1.0243
 863       9.084e+00       1.395e+01       5.748e-01          -0.005          -0.007           1.000       1.524e-01         -0.8056
 864       9.359e+00       1.395e+01       5.704e-01           0.036          -0.025           0.999       1.571e-01         -0.6567
 865       9.633e+00       1.395e+01       5.537e-01           0.087          -0.047           0.995       1.530e-01         -0.5035
 866       9.891e+00       1.395e+01       5.260e-01           0.128          -0.063           0.990       1.403e-01         -0.3359
 867       1.012e+01       1.395e+01       4.937e-01           0.155          -0.072           0.985       1.191e-01         -0.1926
 868       1.030e+01       1.395e+01       4.631e-01           0.176          -0.079           0.981       9.078e-02         -0.0814
 869       1.043e+01       1.395e+01       4.389e-01           0.198          -0.085           0.977       5.693e-02         -0.0196
 870       1.050e+01       1.395e+01       4.219e-01           0.387          -0.139           0.911       2.071e-02          0.1769
Strip 34
 871       1.065e+01       1.447e+01       4.296e-01           0.026           0.022          -0.999       1.463e-02          0.0985
 872       1.059e+01       1.447e+01       4.338e-01          -0.099           0.059          -0.993       4.327e-02          0.2559
 873       1.047e+01       1.447e+01       4.357e-01           0.036           0.017          -0.999       6.898e-02          0.3190
 874       1.029e+01       1.447e+01       4.175e-01           0.159          -0.023          -0.987       9.211e-02          0.2677
 875       1.008e+01       1.447e+01       3.771e-01           0.210          -0.042          -0.977       1.102e-01          0.1558
 876       9.841e+00       1.447e+01       3.292e-01           0.180          -0.030          -0.983       1.200e-01          0.0332
 877       9.585e+00       1.447e+01       2.942e-01           0.090           0.008          -0.996       1.219e-01         -0.0074
 878       9.329e+00       1.447e+01       2.807e-01           0.014           0.044          -0.999       1.179e-01          0.0602
 879       9.088e+00       1.447e+01       2.836e-01          -0.040           0.070          -0.997       1.077e-01          0.1791
 880       8.876e+00       1.447e+01       2.977e-01          -0.096           0.099          -0.990       9.159e-02          0.3339
 881       8.705e+00       1.447e+01       3.208e-01          -0.181           0.145          -0.973       7.067e-02          0.5367
 882       8.585e+00       1.447e+01       3.541e-01          -0.381           0.256          -0.889       4.814e-02          0.6989
 883       8.523e+00       1.447e+01       4.015e-01          -0.775           0.468          -0.425       3.359e-02         -0.3505
 884       8.523e+00       1.447e+01       4.572e-01          -0.777           0.444           0.447       3.350e-02         -3.2897
 885       8.585e+00       1.447e+01       5.047e-01          -0.382           0.203           0.902       4.798e-02         -3.7992
 886       8.705e+00       1.446e+01       5.376e-01          -0.176           0.084           0.981       7.041e-02         -2.1236
 887       8.876e+00       1.446e+01       5.599e-01          -0.093           0.039           0.995       9.135e-02         -1.3456
 888       9.088e+00       1.446e+01       5.739e-01          -0.042           0.012           0.999       1.075e-01         -0.9756
 889       9.329e+00       1.446e+01       5.794e-01          -0.005          -0.007           1.000       1.178e-01         -0.7602
 890       9.585e+00       1.446e+01       5.753e-01           0.036          -0.025           0.999       1.213e-01         -0.6163
 891       9.841e+00       1.446e+01       5.597e-01           0.087          -0.047           0.995       1.182e-01         -0.4712
 892       1.008e+01       1.447e+01       5.339e-01           0.128          -0.063           0.990       1.084e-01         -0.3137
 893       1.029e+01       1.447e+01       5.037e-01           0.155          -0.072           0.985       9.203e-02         -0.1810
 894       1.047e+01       1.447e+01       4.751e-01           0.176          -0.079           0.981       7.013e-02         -0.0789
 895       1.059e+01       1.447e+01       4.526e-01           0.198          -0.085           0.977       4.398e-02         -0.0243
 896       1.065e+01       1.447e+01       4.367e-01           0.387          -0.139           0.911       1.600e-02          0.1713
Strip 35
 897       1.077e+01       1.488e+01       4.420e-01           0.026           0.022          -0.999       1.083e-02          0.0627
 898       1.071e+01       1.488e+01       4.459e-01          -0.099           0.059          -0.993       3.201e-02          0.2118
 899       1.060e+01       1.488e+01       4.477e-01           0.036           0.017          -0.999       5.103e-02          0.2689
 900       1.044e+01       1.488e+01       4.305e-01           0.159          -0.023          -0.987       6.815e-02          0.2170
 901       1.024e+01       1.489e+01       3.925e-01           0.210          -0.042          -0.977       8.152e-02          0.1067
 902       1.001e+01       1.489e+01       3.473e-01           0.180          -0.030          -0.983       8.881e-02         -0.0157
 903       9.768e+00       1.489e+01       3.144e-01           0.090           0.008          -0.996       9.022e-02         -0.0597
 904       9.527e+00       1.489e+01       3.016e-01           0.014           0.044          -0.999       8.726e-02          0.0025
 905       9.300e+00       1.489e+01       3.044e-01          -0.040           0.070          -0.997       7.970e-02          0.1182
 906       9.100e+00       1.489e+01       3.176e-01          -0.096           0.099          -0.990       6.775e-02          0.2753
 907       8.938e+00       1.489e+01       3.394e-01          -0.181           0.145          -0.973       5.227e-02          0.4872
 908       8.825e+00       1.489e+01       3.708e-01          -0.381           0.256          -0.888       3.560e-02          0.6842
 909       8.767e+00       1.488e+01       4.155e-01          -0.775           0.468          -0.424       2.484e-02         -0.2500
 910       8.767e+00       1.488e+01       4.680e-01          -0.776           0.443           0.448       2.480e-02         -3.0590
 911       8.825e+00       1.488e+01       5.127e-01          -0.382           0.203           0.902       3.551e-02         -3.5913
 912       8.938e+00       1.488e+01       5.437e-01          -0.176           0.084           0.981       5.210e-02         -1.9991
 913       9.100e+00       1.488e+01       5.648e-01          -0.093           0.039           0.995       6.759e-02         -1.2505
 914       9.300e+00       1.488e+01       5.780e-01          -0.042           0.012           0.999       7.956e-02         -0.8924
 915       9.527e+00       1.488e+01       5.831e-01          -0.005          -0.007           1.000       8.712e-02         -0.6879
 916       9.768e+00       1.488e+01       5.793e-01           0.036          -0.025           0.999       8.977e-02         -0.5588
 917       1.001e+01       1.488e+01       5.646e-01           0.087          -0.047           0.995       8.746e-02         -0.4318
 918       1.024e+01       1.488e+01       5.402e-01           0.128          -0.063           0.990       8.017e-02         -0.2933
 919       1.044e+01       1.488e+01       5.118e-01           0.156          -0.072           0.985       6.808e-02         -0.1788
 920       1.060e+01       1.488e+01       4.849e-01           0.176          -0.079           0.981       5.188e-02         -0.0922
 921       1.071e+01       1.488e+01       4.636e-01           0.198          -0.085           0.977       3.253e-02         -0.0496
 922       1.077e+01       1.488e+01       4.486e-01           0.387          -0.139           0.911       1.183e-02          0.1459
Strip 36
 923       1.086e+01       1.520e+01       4.513e-01           0.026           0.022          -0.999       7.426e-03         -0.0450
 924       1.081e+01       1.520e+01       4.551e-01          -0.099           0.059          -0.993       2.196e-02          0.0892
 925       1.070e+01       1.520e+01       4.568e-01           0.036           0.017          -0.999       3.501e-02          0.1416
 926       1.054e+01       1.520e+01       4.404e-01           0.159          -0.023          -0.987       4.675e-02          0.1019
 927       1.035e+01       1.520e+01       4.041e-01           0.210          -0.042          -0.977       5.593e-02          0.0122
 928       1.014e+01       1.520e+01       3.610e-01           0.180          -0.030          -0.983       6.093e-02         -0.0915
 929       9.906e+00       1.520e+01       3.296e-01           0.090           0.008          -0.996       6.190e-02         -0.1295
 930       9.676e+00       1.520e+01       3.174e-01           0.014           0.044          -0.999       5.986e-02         -0.0763
 931       9.460e+00       1.520e+01       3.201e-01          -0.040           0.070          -0.997       5.467e-02          0.0225
 932       9.269e+00       1.520e+01       3.327e-01          -0.097           0.099          -0.990       4.647e-02          0.1669
 933       9.115e+00       1.520e+01       3.535e-01          -0.181           0.145          -0.973       3.585e-02          0.3826
 934       9.007e+00       1.520e+01       3.834e-01          -0.381           0.256          -0.888       2.441e-02          0.6306
 935       8.952e+00       1.520e+01       4.261e-01          -0.776           0.469          -0.423       1.703e-02         -0.1184
 936       8.952e+00       1.520e+01       4.761e-01          -0.776           0.443           0.449       1.702e-02         -2.7111
 937       9.007e+00       1.520e+01       5.188e-01          -0.382           0.203           0.902       2.437e-02         -3.2672
 938       9.115e+00       1.520e+01       5.483e-01          -0.175           0.084           0.981       3.574e-02         -1.7993
 939       9.269e+00       1.520e+01       5.684e-01          -0.093           0.039           0.995       4.637e-02         -1.1004
 940       9.460e+00       1.520e+01       5.810e-01          -0.042           0.012           0.999       5.458e-02         -0.7731
 941       9.676e+00       1.520e+01       5.859e-01          -0.005          -0.007           1.000       5.976e-02         -0.6019
 942       9.906e+00       1.520e+01       5.823e-01           0.036          -0.025           0.999       6.158e-02         -0.5069
 943       1.014e+01       1.520e+01       5.683e-01           0.087          -0.047           0.995       5.999e-02         -0.4148
 944       1.035e+01       1.520e+01       5.450e-01           0.128          -0.063           0.990       5.499e-02         -0.3120
 945       1.054e+01       1.520e+01       5.179e-01           0.156          -0.072           0.985       4.670e-02         -0.2319
 946       1.070e+01       1.520e+01       4.922e-01           0.176          -0.079           0.981       3.559e-02         -0.1760
 947       1.081e+01       1.520e+01       4.720e-01           0.198          -0.085           0.977       2.232e-02         -0.1562
 948       1.086e+01       1.520e+01       4.576e-01           0.387          -0.139           0.911       8.114e-03          0.0415
Strip 37
 949       1.092e+01       1.541e+01       4.576e-01           0.026           0.022          -0.999       4.331e-03         -0.5487
 950       1.087e+01       1.541e+01       4.612e-01          -0.099           0.059          -0.993       1.280e-02         -0.4486
 951       1.076e+01       1.541e+01       4.629e-01           0.036           0.017          -0.999       2.042e-02         -0.3378
 952       1.062e+01       1.541e+01       4.470e-01           0.159          -0.023          -0.987       2.727e-02         -0.2306
 953       1.043e+01       1.541e+01       4.119e-01           0.210          -0.042          -0.977       3.262e-02         -0.1809
 954       1.022e+01       1.541e+01       3.702e-01           0.180          -0.030          -0.983       3.554e-02         -0.2021
 955       9.999e+00       1.541e+01       3.398e-01           0.090           0.008          -0.996       3.610e-02         -0.2067
 956       9.777e+00       1.541e+01       3.281e-01           0.014           0.044          -0.999       3.491e-02         -0.1586
 957       9.567e+00       1.541e+01       3.306e-01          -0.040           0.070          -0.997       3.188e-02         -0.0889
 958       9.382e+00       1.541e+01       3.428e-01          -0.097           0.099          -0.990       2.710e-02          0.0127
 959       9.234e+00       1.541e+01       3.629e-01          -0.181           0.145          -0.973       2.091e-02          0.1844
 960       9.129e+00       1.541e+01       3.919e-01          -0.381           0.256          -0.888       1.423e-02          0.4238
 961       9.076e+00       1.541e+01       4.332e-01          -0.776           0.469          -0.423       9.932e-03         -0.0605
 962       9.076e+00       1.541e+01       4.816e-01          -0.776           0.443           0.449       9.926e-03         -2.2502
 963       9.129e+00       1.541e+01       5.229e-01          -0.382           0.203           0.902       1.422e-02         -2.7763
 964       9.234e+00       1.541e+01       5.514e-01          -0.175           0.084           0.981       2.085e-02         -1.4950
 965       9.382e+00       1.541e+01       5.709e-01          -0.093           0.039           0.995       2.704e-02         -0.8984
 966       9.567e+00       1.541e+01       5.831e-01          -0.042           0.012           0.999       3.183e-02         -0.6559
 967       9.777e+00       1.541e+01       5.878e-01          -0.005          -0.007           1.000       3.485e-02         -0.5447
 968       9.999e+00       1.541e+01       5.843e-01           0.036          -0.025           0.999       3.591e-02         -0.4938
 969       1.022e+01       1.541e+01       5.707e-01           0.087          -0.047           0.995       3.499e-02         -0.4586
 970       1.043e+01       1.541e+01       5.482e-01           0.128          -0.063           0.990       3.207e-02         -0.4578
 971       1.062e+01       1.541e+01       5.220e-01           0.156          -0.072           0.985       2.723e-02         -0.5298
 972       1.076e+01       1.541e+01       4.972e-01           0.177          -0.079           0.981       2.075e-02         -0.6360
 973       1.087e+01       1.541e+01       4.775e-01           0.198          -0.085           0.977       1.301e-02         -0.7204
 974       1.092e+01       1.541e+01       4.637e-01           0.387          -0.139           0.911       4.732e-03         -0.5287
Strip 38
 975       1.095e+01       1.552e+01       4.607e-01           0.026           0.022          -0.999       1.423e-03         -1.1865
 976       1.090e+01       1.552e+01       4.643e-01          -0.099           0.059          -0.993       4.206e-03         -1.1504
 977       1.080e+01       1.552e+01       4.659e-01           0.036           0.017          -0.999       6.706e-03         -0.9820
 978       1.065e+01       1.552e+01       4.503e-01           0.159          -0.023          -0.987       8.957e-03         -0.6807
 979       1.047e+01       1.552e+01       4.158e-01           0.210          -0.042          -0.977       1.072e-02         -0.4265
 980       1.026e+01       1.552e+01       3.748e-01           0.180          -0.030          -0.983       1.167e-02         -0.3085
 981       1.005e+01       1.552e+01       3.450e-01           0.090           0.008          -0.996       1.186e-02         -0.2519
 982       9.827e+00       1.552e+01       3.334e-01           0.014           0.044          -0.999       1.147e-02         -0.2008
 983       9.621e+00       1.552e+01       3.359e-01          -0.040           0.070          -0.997       1.047e-02         -0.1515
 984       9.439e+00       1.552e+01       3.479e-01          -0.097           0.099          -0.990       8.901e-03         -0.0828
 985       9.293e+00       1.552e+01       3.677e-01          -0.181           0.145          -0.973       6.867e-03          0.0648
 986       9.191e+00       1.552e+01       3.961e-01          -0.382           0.256          -0.888       4.674e-03          0.2155
 987       9.138e+00       1.552e+01       4.367e-01          -0.776           0.469          -0.422       3.262e-03          0.0191
 988       9.138e+00       1.552e+01       4.843e-01          -0.776           0.443           0.449       3.261e-03         -1.7217
 989       9.191e+00       1.551e+01       5.249e-01          -0.382           0.203           0.902       4.670e-03         -2.2175
 990       9.293e+00       1.551e+01       5.530e-01          -0.175           0.084           0.981       6.849e-03         -1.1219
 991       9.439e+00       1.551e+01       5.721e-01          -0.093           0.039           0.995       8.884e-03         -0.7426
 992       9.621e+00       1.551e+01       5.841e-01          -0.042           0.012           0.999       1.046e-02         -0.5854
 993       9.827e+00       1.551e+01       5.888e-01          -0.005          -0.007           1.000       1.145e-02         -0.5123
 994       1.005e+01       1.551e+01       5.853e-01           0.036          -0.025           0.999       1.180e-02         -0.4772
 995       1.026e+01       1.551e+01       5.720e-01           0.087          -0.047           0.995       1.149e-02         -0.4623
 996       1.047e+01       1.551e+01       5.499e-01           0.128          -0.063           0.990       1.053e-02         -0.5268
 997       1.065e+01       1.551e+01       5.240e-01           0.156          -0.072           0.985       8.944e-03         -0.7517
 998       1.080e+01       1.552e+01       4.996e-01           0.177          -0.079           0.981       6.816e-03         -1.0930
 999       1.090e+01       1.552e+01       4.804e-01           0.198          -0.085           0.977       4.274e-03         -1.3629
1000       1.095e+01       1.552e+01       4.667e-01           0.387          -0.139           0.911       1.554e-03         -1.2317










